                                  MODFLOW-2005     
      U.S. GEOLOGICAL SURVEY MODULAR FINITE-DIFFERENCE GROUND-WATER FLOW MODEL
                            VERSION 1.11.00 8/8/2013

 LIST FILE: output.dat
                         UNIT    3

 OPENING discret.dat
 FILE TYPE:DIS   UNIT  105   STATUS:OLD    
 FORMAT:FORMATTED              ACCESS:SEQUENTIAL          

 OPENING bas6.dat
 FILE TYPE:BAS6   UNIT    1   STATUS:OLD    
 FORMAT:FORMATTED              ACCESS:SEQUENTIAL          

 OPENING zone.dat
 FILE TYPE:ZONE   UNIT   93   STATUS:OLD    
 FORMAT:FORMATTED              ACCESS:SEQUENTIAL          

 OPENING multiple.dat
 FILE TYPE:MULT   UNIT   94   STATUS:OLD    
 FORMAT:FORMATTED              ACCESS:SEQUENTIAL          

 OPENING bcf6.dat
 FILE TYPE:BCF6   UNIT   11   STATUS:OLD    
 FORMAT:FORMATTED              ACCESS:SEQUENTIAL          

 OPENING sip.dat
 FILE TYPE:SIP   UNIT   19   STATUS:OLD    
 FORMAT:FORMATTED              ACCESS:SEQUENTIAL          

 OPENING wel6.dat
 FILE TYPE:WEL   UNIT   12   STATUS:OLD    
 FORMAT:FORMATTED              ACCESS:SEQUENTIAL          

 OPENING lmt6.dat
 FILE TYPE:LMT6   UNIT   66   STATUS:OLD    
 FORMAT:FORMATTED              ACCESS:SEQUENTIAL          

 OPENING oc.dat
 FILE TYPE:OC   UNIT   22   STATUS:OLD    
 FORMAT:FORMATTED              ACCESS:SEQUENTIAL          

 OPENING budget.dat
 FILE TYPE:DATA(BINARY)   UNIT   50   STATUS:UNKNOWN
 FORMAT:BINARY                 ACCESS:SEQUENTIAL          

 OPENING heads.dat
 FILE TYPE:DATA(BINARY)   UNIT   51   STATUS:UNKNOWN
 FORMAT:BINARY                 ACCESS:SEQUENTIAL          

 OPENING ddown.dat
 FILE TYPE:DATA(BINARY)   UNIT   52   STATUS:UNKNOWN
 FORMAT:BINARY                 ACCESS:SEQUENTIAL          

 BAS -- BASIC PACKAGE, VERSION 7, 5/2/2005 INPUT READ FROM UNIT    1
 
 MODFLOW was compiled using mixed precision
 Precision of REAL variables:           6
 Precision of DOUBLE PRECISION variables:          15

 DISCRETIZATION INPUT DATA READ FROM UNIT  105
 # Discretization file for MODFLOW-2000, generated by PMWIN
    1 LAYERS        51 ROWS        51 COLUMNS
    1 STRESS PERIOD(S) IN SIMULATION
 MODEL TIME UNIT IS SECONDS
 MODEL LENGTH UNIT IS UNDEFINED
  Confining bed flag for each layer:
   0



                               DELR
 READING ON UNIT  105 WITH FORMAT: (15G14.0)           



                               DELC
 READING ON UNIT  105 WITH FORMAT: (15G14.0)           



           TOP ELEVATION OF LAYER 1
 READING ON UNIT  105 WITH FORMAT: (15G14.0)           



             MODEL LAYER BOTTOM EL. FOR LAYER   1
 READING ON UNIT  105 WITH FORMAT: (15G14.0)           


 STRESS PERIOD     LENGTH       TIME STEPS     MULTIPLIER FOR DELT    SS FLAG
 ----------------------------------------------------------------------------
        1         50.00000         50                    1.000         TR

 TRANSIENT SIMULATION



 
 # Basic package file for MODFLOW-2000, generated by PMWIN                       
 THE FREE FORMAT OPTION HAS BEEN SELECTED

           BOUNDARY ARRAY =              1 FOR LAYER   1

 AQUIFER HEAD WILL BE SET TO  -999.99     AT ALL NO-FLOW NODES (IBOUND=0).



                       INITIAL HEAD FOR LAYER   1
 READING ON UNIT    1 WITH FORMAT: (15G14.0)           

 OUTPUT CONTROL IS SPECIFIED EVERY TIME STEP
 HEAD PRINT FORMAT CODE IS   0    DRAWDOWN PRINT FORMAT CODE IS   0
 HEADS WILL BE SAVED ON UNIT   51    DRAWDOWNS WILL BE SAVED ON UNIT   52

 ZONE OPTION, INPUT READ FROM UNIT   93
 # Zone file for MODFLOW-2000, generated by PMWIN
     0 ZONE ARRAYS

 MULTIPLIER OPTION, INPUT READ FROM UNIT   94
 # Multiplier file for MODFLOW-2000, generated by PMWIN
   0 MULTIPLIER ARRAYS

 BCF -- BLOCK-CENTERED FLOW PACKAGE, VERSION 7, 5/2/2005
         INPUT READ FROM UNIT 11
 TRANSIENT SIMULATION
 CELL-BY-CELL FLOWS WILL BE SAVED ON UNIT 50
 HEAD AT CELLS THAT CONVERT TO DRY= -0.10000E+31
 WETTING CAPABILITY IS NOT ACTIVE
      LAYER  LAYER-TYPE CODE     INTERBLOCK T
      --------------------------------------------
         1            1          0 -- HARMONIC    



           COLUMN TO ROW ANISOTROPY
 READING ON UNIT   11 WITH FORMAT: (1G14.0)            

     PRIMARY STORAGE COEF =  1.000000E-01 FOR LAYER   1



              HYD. COND. ALONG ROWS FOR LAYER   1
 READING ON UNIT   11 WITH FORMAT: (15G14.0)           

 WEL -- WELL PACKAGE, VERSION 7, 5/2/2005 INPUT READ FROM UNIT   12
 # WELL file for MODFLOW-2000 or higher, generated by PMWIN
 #
          1 Named Parameters            102 List entries
 MAXIMUM OF    102 ACTIVE WELLS AT ONE TIME
 CELL-BY-CELL FLOWS WILL BE SAVED ON UNIT   50


     1 Well parameters

 PARAMETER NAME:WEL_0_1      TYPE:Q   
 Parameter value from package file is:   1.00000    
   NUMBER OF ENTRIES:    102

 WELL NO.  LAYER   ROW   COL   STRESS FACTOR         
 ----------------------------------------------------
      1      1      1      1      0.3500E-01
      2      1      1     51     -0.4000E-01
      3      1      2      1      0.3500E-01
      4      1      2     51     -0.4000E-01
      5      1      3      1      0.3500E-01
      6      1      3     51     -0.4000E-01
      7      1      4      1      0.3500E-01
      8      1      4     51     -0.4000E-01
      9      1      5      1      0.3500E-01
     10      1      5     51     -0.4000E-01
     11      1      6      1      0.3500E-01
     12      1      6     51     -0.4000E-01
     13      1      7      1      0.3500E-01
     14      1      7     51     -0.4000E-01
     15      1      8      1      0.3500E-01
     16      1      8     51     -0.4000E-01
     17      1      9      1      0.3500E-01
     18      1      9     51     -0.4000E-01
     19      1     10      1      0.3500E-01
     20      1     10     51     -0.4000E-01
     21      1     11      1      0.3500E-01
     22      1     11     51     -0.4000E-01
     23      1     12      1      0.3500E-01
     24      1     12     51     -0.4000E-01
     25      1     13      1      0.3500E-01
     26      1     13     51     -0.4000E-01
     27      1     14      1      0.3500E-01
     28      1     14     51     -0.4000E-01
     29      1     15      1      0.3500E-01
     30      1     15     51     -0.4000E-01
     31      1     16      1      0.3500E-01
     32      1     16     51     -0.4000E-01
     33      1     17      1      0.3500E-01
     34      1     17     51     -0.4000E-01
     35      1     18      1      0.3500E-01
     36      1     18     51     -0.4000E-01
     37      1     19      1      0.3500E-01
     38      1     19     51     -0.4000E-01
     39      1     20      1      0.3500E-01
     40      1     20     51     -0.4000E-01
     41      1     21      1      0.3500E-01
     42      1     21     51     -0.4000E-01
     43      1     22      1      0.3500E-01
     44      1     22     51     -0.4000E-01
     45      1     23      1      0.3500E-01
     46      1     23     51     -0.4000E-01
     47      1     24      1      0.3500E-01
     48      1     24     51     -0.4000E-01
     49      1     25      1      0.3500E-01
     50      1     25     51     -0.4000E-01
     51      1     26      1      0.3500E-01
     52      1     26     51     -0.4000E-01
     53      1     27      1      0.3500E-01
     54      1     27     51     -0.4000E-01
     55      1     28      1      0.3500E-01
     56      1     28     51     -0.4000E-01
     57      1     29      1      0.3500E-01
     58      1     29     51     -0.4000E-01
     59      1     30      1      0.3500E-01
     60      1     30     51     -0.4000E-01
     61      1     31      1      0.3500E-01
     62      1     31     51     -0.4000E-01
     63      1     32      1      0.3500E-01
     64      1     32     51     -0.4000E-01
     65      1     33      1      0.3500E-01
     66      1     33     51     -0.4000E-01
     67      1     34      1      0.3500E-01
     68      1     34     51     -0.4000E-01
     69      1     35      1      0.3500E-01
     70      1     35     51     -0.4000E-01
     71      1     36      1      0.3500E-01
     72      1     36     51     -0.4000E-01
     73      1     37      1      0.3500E-01
     74      1     37     51     -0.4000E-01
     75      1     38      1      0.3500E-01
     76      1     38     51     -0.4000E-01
     77      1     39      1      0.3500E-01
     78      1     39     51     -0.4000E-01
     79      1     40      1      0.3500E-01
     80      1     40     51     -0.4000E-01
     81      1     41      1      0.3500E-01
     82      1     41     51     -0.4000E-01
     83      1     42      1      0.3500E-01
     84      1     42     51     -0.4000E-01
     85      1     43      1      0.3500E-01
     86      1     43     51     -0.4000E-01
     87      1     44      1      0.3500E-01
     88      1     44     51     -0.4000E-01
     89      1     45      1      0.3500E-01
     90      1     45     51     -0.4000E-01
     91      1     46      1      0.3500E-01
     92      1     46     51     -0.4000E-01
     93      1     47      1      0.3500E-01
     94      1     47     51     -0.4000E-01
     95      1     48      1      0.3500E-01
     96      1     48     51     -0.4000E-01
     97      1     49      1      0.3500E-01
     98      1     49     51     -0.4000E-01
     99      1     50      1      0.3500E-01
    100      1     50     51     -0.4000E-01
    101      1     51      1      0.3500E-01
    102      1     51     51     -0.4000E-01

 SIP -- STRONGLY-IMPLICIT PROCEDURE SOLUTION PACKAGE
                    VERSION 7, 5/2/2005 INPUT READ FROM UNIT   19
 MAXIMUM OF 200 ITERATIONS ALLOWED FOR CLOSURE
  5 ITERATION PARAMETERS

          SOLUTION BY THE STRONGLY IMPLICIT PROCEDURE
          -------------------------------------------
 MAXIMUM ITERATIONS ALLOWED FOR CLOSURE =      200
                 ACCELERATION PARAMETER =    1.00000    
      HEAD CHANGE CRITERION FOR CLOSURE =    0.10000E-02
      SIP HEAD CHANGE PRINTOUT INTERVAL =        1

     CALCULATE ITERATION PARAMETERS FROM MODEL CALCULATED WSEED


 ***Link-MT3DMS Package v7***
 OPENING LINK-MT3DMS OUTPUT FILE: MT3D.FLO                                                                                                                                                                                                
 ON UNIT NUMBER:   333
 FILE TYPE: UNFORMATTED
 HEADER OPTION: EXTENDED
 ***Link-MT3DMS Package v7***

1
                            STRESS PERIOD NO.    1, LENGTH =   50.00000    
                            -----------------------------------------------

                              NUMBER OF TIME STEPS =    50

                               MULTIPLIER FOR DELT =     1.000

                            INITIAL TIME STEP SIZE =  1.0000000    

 Parameter:  WEL_0_1
 WELL NO.  LAYER   ROW   COL   STRESS RATE         
 --------------------------------------------------
      1      1      1      1      0.3500E-01
      2      1      1     51     -0.4000E-01
      3      1      2      1      0.3500E-01
      4      1      2     51     -0.4000E-01
      5      1      3      1      0.3500E-01
      6      1      3     51     -0.4000E-01
      7      1      4      1      0.3500E-01
      8      1      4     51     -0.4000E-01
      9      1      5      1      0.3500E-01
     10      1      5     51     -0.4000E-01
     11      1      6      1      0.3500E-01
     12      1      6     51     -0.4000E-01
     13      1      7      1      0.3500E-01
     14      1      7     51     -0.4000E-01
     15      1      8      1      0.3500E-01
     16      1      8     51     -0.4000E-01
     17      1      9      1      0.3500E-01
     18      1      9     51     -0.4000E-01
     19      1     10      1      0.3500E-01
     20      1     10     51     -0.4000E-01
     21      1     11      1      0.3500E-01
     22      1     11     51     -0.4000E-01
     23      1     12      1      0.3500E-01
     24      1     12     51     -0.4000E-01
     25      1     13      1      0.3500E-01
     26      1     13     51     -0.4000E-01
     27      1     14      1      0.3500E-01
     28      1     14     51     -0.4000E-01
     29      1     15      1      0.3500E-01
     30      1     15     51     -0.4000E-01
     31      1     16      1      0.3500E-01
     32      1     16     51     -0.4000E-01
     33      1     17      1      0.3500E-01
     34      1     17     51     -0.4000E-01
     35      1     18      1      0.3500E-01
     36      1     18     51     -0.4000E-01
     37      1     19      1      0.3500E-01
     38      1     19     51     -0.4000E-01
     39      1     20      1      0.3500E-01
     40      1     20     51     -0.4000E-01
     41      1     21      1      0.3500E-01
     42      1     21     51     -0.4000E-01
     43      1     22      1      0.3500E-01
     44      1     22     51     -0.4000E-01
     45      1     23      1      0.3500E-01
     46      1     23     51     -0.4000E-01
     47      1     24      1      0.3500E-01
     48      1     24     51     -0.4000E-01
     49      1     25      1      0.3500E-01
     50      1     25     51     -0.4000E-01
     51      1     26      1      0.3500E-01
     52      1     26     51     -0.4000E-01
     53      1     27      1      0.3500E-01
     54      1     27     51     -0.4000E-01
     55      1     28      1      0.3500E-01
     56      1     28     51     -0.4000E-01
     57      1     29      1      0.3500E-01
     58      1     29     51     -0.4000E-01
     59      1     30      1      0.3500E-01
     60      1     30     51     -0.4000E-01
     61      1     31      1      0.3500E-01
     62      1     31     51     -0.4000E-01
     63      1     32      1      0.3500E-01
     64      1     32     51     -0.4000E-01
     65      1     33      1      0.3500E-01
     66      1     33     51     -0.4000E-01
     67      1     34      1      0.3500E-01
     68      1     34     51     -0.4000E-01
     69      1     35      1      0.3500E-01
     70      1     35     51     -0.4000E-01
     71      1     36      1      0.3500E-01
     72      1     36     51     -0.4000E-01
     73      1     37      1      0.3500E-01
     74      1     37     51     -0.4000E-01
     75      1     38      1      0.3500E-01
     76      1     38     51     -0.4000E-01
     77      1     39      1      0.3500E-01
     78      1     39     51     -0.4000E-01
     79      1     40      1      0.3500E-01
     80      1     40     51     -0.4000E-01
     81      1     41      1      0.3500E-01
     82      1     41     51     -0.4000E-01
     83      1     42      1      0.3500E-01
     84      1     42     51     -0.4000E-01
     85      1     43      1      0.3500E-01
     86      1     43     51     -0.4000E-01
     87      1     44      1      0.3500E-01
     88      1     44     51     -0.4000E-01
     89      1     45      1      0.3500E-01
     90      1     45     51     -0.4000E-01
     91      1     46      1      0.3500E-01
     92      1     46     51     -0.4000E-01
     93      1     47      1      0.3500E-01
     94      1     47     51     -0.4000E-01
     95      1     48      1      0.3500E-01
     96      1     48     51     -0.4000E-01
     97      1     49      1      0.3500E-01
     98      1     49     51     -0.4000E-01
     99      1     50      1      0.3500E-01
    100      1     50     51     -0.4000E-01
    101      1     51      1      0.3500E-01
    102      1     51     51     -0.4000E-01

    102 WELLS
 
 SOLVING FOR HEAD 

 AVERAGE SEED = 0.00092885
 MINIMUM SEED = 0.00054208

     5 ITERATION PARAMETERS CALCULATED FROM AVERAGE SEED:

  0.000000E+00 0.825423E+00 0.969523E+00 0.994679E+00 0.999071E+00

     6 ITERATIONS FOR TIME STEP   1 IN STRESS PERIOD    1

 MAXIMUM HEAD CHANGE FOR EACH ITERATION:

    HEAD CHANGE   HEAD CHANGE   HEAD CHANGE   HEAD CHANGE   HEAD CHANGE
  LAYER,ROW,COL LAYER,ROW,COL LAYER,ROW,COL LAYER,ROW,COL LAYER,ROW,COL
 ----------------------------------------------------------------------
      1.802       -0.1156       -0.2783E-01   -0.7859E-02    0.1141E-02
  (  1, 28,  1) (  1,  1, 51) (  1,  8, 48) (  1,  2, 51) (  1,  4, 50)
    -0.4864E-03
  (  1,  1, 50)


 HEAD/DRAWDOWN PRINTOUT FLAG = 1     TOTAL BUDGET PRINTOUT FLAG = 1
 CELL-BY-CELL FLOW TERM FLAG = 1

 OUTPUT FLAGS FOR EACH LAYER:
          HEAD    DRAWDOWN  HEAD  DRAWDOWN
 LAYER  PRINTOUT  PRINTOUT  SAVE    SAVE
 -----------------------------------------
    1       0         0       1       1
 UBUDSV SAVING "         STORAGE" ON UNIT 50 AT TIME STEP  1, STRESS PERIOD    1
 UBUDSV SAVING "   CONSTANT HEAD" ON UNIT 50 AT TIME STEP  1, STRESS PERIOD    1
 UBUDSV SAVING "FLOW RIGHT FACE " ON UNIT 50 AT TIME STEP  1, STRESS PERIOD    1
 UBUDSV SAVING "FLOW FRONT FACE " ON UNIT 50 AT TIME STEP  1, STRESS PERIOD    1
 UBUDSV SAVING "           WELLS" ON UNIT 50 AT TIME STEP  1, STRESS PERIOD    1

 SAVING SATURATED THICKNESS AND FLOW TERMS ON UNIT  333 FOR MT3DMS
 BY THE LINK-MT3DMS PACKAGE V7 AT TIME STEP    1, STRESS PERIOD    1


 HEAD WILL BE SAVED ON UNIT   51 AT END OF TIME STEP    1, STRESS PERIOD    1

 DRAWDOWN WILL BE SAVED ON UNIT   52 AT END OF TIME STEP    1, STRESS PERIOD    1
1
  VOLUMETRIC BUDGET FOR ENTIRE MODEL AT END OF TIME STEP    1, STRESS PERIOD   1
  ------------------------------------------------------------------------------

     CUMULATIVE VOLUMES      L**3       RATES FOR THIS TIME STEP      L**3/T
     ------------------                 ------------------------

           IN:                                      IN:
           ---                                      ---
             STORAGE =          11.2044               STORAGE =          11.2044
       CONSTANT HEAD =           0.0000         CONSTANT HEAD =           0.0000
               WELLS =           1.7850                 WELLS =           1.7850

            TOTAL IN =          12.9894              TOTAL IN =          12.9894

          OUT:                                     OUT:
          ----                                     ----
             STORAGE =          10.9496               STORAGE =          10.9496
       CONSTANT HEAD =           0.0000         CONSTANT HEAD =           0.0000
               WELLS =           2.0400                 WELLS =           2.0400

           TOTAL OUT =          12.9896             TOTAL OUT =          12.9896

            IN - OUT =      -2.0313E-04              IN - OUT =      -2.0313E-04

 PERCENT DISCREPANCY =          -0.00     PERCENT DISCREPANCY =          -0.00






         TIME SUMMARY AT END OF TIME STEP    1 IN STRESS PERIOD    1
                    SECONDS     MINUTES      HOURS       DAYS        YEARS
                    -----------------------------------------------------------
   TIME STEP LENGTH 1.00000     1.66667E-02 2.77778E-04 1.15741E-05 3.16881E-08
 STRESS PERIOD TIME 1.00000     1.66667E-02 2.77778E-04 1.15741E-05 3.16881E-08
         TOTAL TIME 1.00000     1.66667E-02 2.77778E-04 1.15741E-05 3.16881E-08
1
 
 SOLVING FOR HEAD 
     5 ITERATIONS FOR TIME STEP   2 IN STRESS PERIOD    1

 MAXIMUM HEAD CHANGE FOR EACH ITERATION:

    HEAD CHANGE   HEAD CHANGE   HEAD CHANGE   HEAD CHANGE   HEAD CHANGE
  LAYER,ROW,COL LAYER,ROW,COL LAYER,ROW,COL LAYER,ROW,COL LAYER,ROW,COL
 ----------------------------------------------------------------------
     0.6654        0.1176        0.1749E-01   -0.3064E-02    0.2478E-03
  (  1, 51,  1) (  1,  1,  2) (  1, 18,  1) (  1,  1, 50) (  1,  4, 49)


 HEAD/DRAWDOWN PRINTOUT FLAG = 1     TOTAL BUDGET PRINTOUT FLAG = 1
 CELL-BY-CELL FLOW TERM FLAG = 1

 OUTPUT FLAGS FOR EACH LAYER:
          HEAD    DRAWDOWN  HEAD  DRAWDOWN
 LAYER  PRINTOUT  PRINTOUT  SAVE    SAVE
 -----------------------------------------
    1       0         0       1       1
 UBUDSV SAVING "         STORAGE" ON UNIT 50 AT TIME STEP  2, STRESS PERIOD    1
 UBUDSV SAVING "   CONSTANT HEAD" ON UNIT 50 AT TIME STEP  2, STRESS PERIOD    1
 UBUDSV SAVING "FLOW RIGHT FACE " ON UNIT 50 AT TIME STEP  2, STRESS PERIOD    1
 UBUDSV SAVING "FLOW FRONT FACE " ON UNIT 50 AT TIME STEP  2, STRESS PERIOD    1
 UBUDSV SAVING "           WELLS" ON UNIT 50 AT TIME STEP  2, STRESS PERIOD    1

 SAVING SATURATED THICKNESS AND FLOW TERMS ON UNIT  333 FOR MT3DMS
 BY THE LINK-MT3DMS PACKAGE V7 AT TIME STEP    2, STRESS PERIOD    1


 HEAD WILL BE SAVED ON UNIT   51 AT END OF TIME STEP    2, STRESS PERIOD    1

 DRAWDOWN WILL BE SAVED ON UNIT   52 AT END OF TIME STEP    2, STRESS PERIOD    1
1
  VOLUMETRIC BUDGET FOR ENTIRE MODEL AT END OF TIME STEP    2, STRESS PERIOD   1
  ------------------------------------------------------------------------------

     CUMULATIVE VOLUMES      L**3       RATES FOR THIS TIME STEP      L**3/T
     ------------------                 ------------------------

           IN:                                      IN:
           ---                                      ---
             STORAGE =          15.3104               STORAGE =           4.1060
       CONSTANT HEAD =           0.0000         CONSTANT HEAD =           0.0000
               WELLS =           3.5700                 WELLS =           1.7850

            TOTAL IN =          18.8804              TOTAL IN =           5.8910

          OUT:                                     OUT:
          ----                                     ----
             STORAGE =          14.8006               STORAGE =           3.8510
       CONSTANT HEAD =           0.0000         CONSTANT HEAD =           0.0000
               WELLS =           4.0800                 WELLS =           2.0400

           TOTAL OUT =          18.8806             TOTAL OUT =           5.8910

            IN - OUT =      -1.9264E-04              IN - OUT =       1.0967E-05

 PERCENT DISCREPANCY =          -0.00     PERCENT DISCREPANCY =           0.00






         TIME SUMMARY AT END OF TIME STEP    2 IN STRESS PERIOD    1
                    SECONDS     MINUTES      HOURS       DAYS        YEARS
                    -----------------------------------------------------------
   TIME STEP LENGTH 1.00000     1.66667E-02 2.77778E-04 1.15741E-05 3.16881E-08
 STRESS PERIOD TIME  2.0000     3.33333E-02 5.55556E-04 2.31481E-05 6.33762E-08
         TOTAL TIME  2.0000     3.33333E-02 5.55556E-04 2.31481E-05 6.33762E-08
1
 
 SOLVING FOR HEAD 
     5 ITERATIONS FOR TIME STEP   3 IN STRESS PERIOD    1

 MAXIMUM HEAD CHANGE FOR EACH ITERATION:

    HEAD CHANGE   HEAD CHANGE   HEAD CHANGE   HEAD CHANGE   HEAD CHANGE
  LAYER,ROW,COL LAYER,ROW,COL LAYER,ROW,COL LAYER,ROW,COL LAYER,ROW,COL
 ----------------------------------------------------------------------
     0.3451        0.7820E-01    0.1665E-01   -0.2013E-02   -0.1092E-03
  (  1, 51,  1) (  1,  1,  2) (  1, 15,  1) (  1,  1, 50) (  1,  1,  1)


 HEAD/DRAWDOWN PRINTOUT FLAG = 1     TOTAL BUDGET PRINTOUT FLAG = 1
 CELL-BY-CELL FLOW TERM FLAG = 1

 OUTPUT FLAGS FOR EACH LAYER:
          HEAD    DRAWDOWN  HEAD  DRAWDOWN
 LAYER  PRINTOUT  PRINTOUT  SAVE    SAVE
 -----------------------------------------
    1       0         0       1       1
 UBUDSV SAVING "         STORAGE" ON UNIT 50 AT TIME STEP  3, STRESS PERIOD    1
 UBUDSV SAVING "   CONSTANT HEAD" ON UNIT 50 AT TIME STEP  3, STRESS PERIOD    1
 UBUDSV SAVING "FLOW RIGHT FACE " ON UNIT 50 AT TIME STEP  3, STRESS PERIOD    1
 UBUDSV SAVING "FLOW FRONT FACE " ON UNIT 50 AT TIME STEP  3, STRESS PERIOD    1
 UBUDSV SAVING "           WELLS" ON UNIT 50 AT TIME STEP  3, STRESS PERIOD    1

 SAVING SATURATED THICKNESS AND FLOW TERMS ON UNIT  333 FOR MT3DMS
 BY THE LINK-MT3DMS PACKAGE V7 AT TIME STEP    3, STRESS PERIOD    1


 HEAD WILL BE SAVED ON UNIT   51 AT END OF TIME STEP    3, STRESS PERIOD    1

 DRAWDOWN WILL BE SAVED ON UNIT   52 AT END OF TIME STEP    3, STRESS PERIOD    1
1
  VOLUMETRIC BUDGET FOR ENTIRE MODEL AT END OF TIME STEP    3, STRESS PERIOD   1
  ------------------------------------------------------------------------------

     CUMULATIVE VOLUMES      L**3       RATES FOR THIS TIME STEP      L**3/T
     ------------------                 ------------------------

           IN:                                      IN:
           ---                                      ---
             STORAGE =          18.2130               STORAGE =           2.9026
       CONSTANT HEAD =           0.0000         CONSTANT HEAD =           0.0000
               WELLS =           5.3550                 WELLS =           1.7850

            TOTAL IN =          23.5680              TOTAL IN =           4.6876

          OUT:                                     OUT:
          ----                                     ----
             STORAGE =          17.4482               STORAGE =           2.6475
       CONSTANT HEAD =           0.0000         CONSTANT HEAD =           0.0000
               WELLS =           6.1200                 WELLS =           2.0400

           TOTAL OUT =          23.5681             TOTAL OUT =           4.6875

            IN - OUT =      -1.2779E-04              IN - OUT =       6.3896E-05

 PERCENT DISCREPANCY =          -0.00     PERCENT DISCREPANCY =           0.00






         TIME SUMMARY AT END OF TIME STEP    3 IN STRESS PERIOD    1
                    SECONDS     MINUTES      HOURS       DAYS        YEARS
                    -----------------------------------------------------------
   TIME STEP LENGTH 1.00000     1.66667E-02 2.77778E-04 1.15741E-05 3.16881E-08
 STRESS PERIOD TIME  3.0000     5.00000E-02 8.33333E-04 3.47222E-05 9.50643E-08
         TOTAL TIME  3.0000     5.00000E-02 8.33333E-04 3.47222E-05 9.50643E-08
1
 
 SOLVING FOR HEAD 
     5 ITERATIONS FOR TIME STEP   4 IN STRESS PERIOD    1

 MAXIMUM HEAD CHANGE FOR EACH ITERATION:

    HEAD CHANGE   HEAD CHANGE   HEAD CHANGE   HEAD CHANGE   HEAD CHANGE
  LAYER,ROW,COL LAYER,ROW,COL LAYER,ROW,COL LAYER,ROW,COL LAYER,ROW,COL
 ----------------------------------------------------------------------
     0.2110        0.5736E-01    0.1440E-01   -0.1704E-02   -0.9599E-04
  (  1, 51,  1) (  1,  2,  2) (  1, 14,  1) (  1,  1, 51) (  1,  4,  1)


 HEAD/DRAWDOWN PRINTOUT FLAG = 1     TOTAL BUDGET PRINTOUT FLAG = 1
 CELL-BY-CELL FLOW TERM FLAG = 1

 OUTPUT FLAGS FOR EACH LAYER:
          HEAD    DRAWDOWN  HEAD  DRAWDOWN
 LAYER  PRINTOUT  PRINTOUT  SAVE    SAVE
 -----------------------------------------
    1       0         0       1       1
 UBUDSV SAVING "         STORAGE" ON UNIT 50 AT TIME STEP  4, STRESS PERIOD    1
 UBUDSV SAVING "   CONSTANT HEAD" ON UNIT 50 AT TIME STEP  4, STRESS PERIOD    1
 UBUDSV SAVING "FLOW RIGHT FACE " ON UNIT 50 AT TIME STEP  4, STRESS PERIOD    1
 UBUDSV SAVING "FLOW FRONT FACE " ON UNIT 50 AT TIME STEP  4, STRESS PERIOD    1
 UBUDSV SAVING "           WELLS" ON UNIT 50 AT TIME STEP  4, STRESS PERIOD    1

 SAVING SATURATED THICKNESS AND FLOW TERMS ON UNIT  333 FOR MT3DMS
 BY THE LINK-MT3DMS PACKAGE V7 AT TIME STEP    4, STRESS PERIOD    1


 HEAD WILL BE SAVED ON UNIT   51 AT END OF TIME STEP    4, STRESS PERIOD    1

 DRAWDOWN WILL BE SAVED ON UNIT   52 AT END OF TIME STEP    4, STRESS PERIOD    1
1
  VOLUMETRIC BUDGET FOR ENTIRE MODEL AT END OF TIME STEP    4, STRESS PERIOD   1
  ------------------------------------------------------------------------------

     CUMULATIVE VOLUMES      L**3       RATES FOR THIS TIME STEP      L**3/T
     ------------------                 ------------------------

           IN:                                      IN:
           ---                                      ---
             STORAGE =          20.7663               STORAGE =           2.5532
       CONSTANT HEAD =           0.0000         CONSTANT HEAD =           0.0000
               WELLS =           7.1400                 WELLS =           1.7850

            TOTAL IN =          27.9063              TOTAL IN =           4.3382

          OUT:                                     OUT:
          ----                                     ----
             STORAGE =          19.7463               STORAGE =           2.2982
       CONSTANT HEAD =           0.0000         CONSTANT HEAD =           0.0000
               WELLS =           8.1600                 WELLS =           2.0400

           TOTAL OUT =          27.9063             TOTAL OUT =           4.3382

            IN - OUT =      -7.0572E-05              IN - OUT =       6.0081E-05

 PERCENT DISCREPANCY =          -0.00     PERCENT DISCREPANCY =           0.00






         TIME SUMMARY AT END OF TIME STEP    4 IN STRESS PERIOD    1
                    SECONDS     MINUTES      HOURS       DAYS        YEARS
                    -----------------------------------------------------------
   TIME STEP LENGTH 1.00000     1.66667E-02 2.77778E-04 1.15741E-05 3.16881E-08
 STRESS PERIOD TIME  4.0000     6.66667E-02 1.11111E-03 4.62963E-05 1.26752E-07
         TOTAL TIME  4.0000     6.66667E-02 1.11111E-03 4.62963E-05 1.26752E-07
1
 
 SOLVING FOR HEAD 
     5 ITERATIONS FOR TIME STEP   5 IN STRESS PERIOD    1

 MAXIMUM HEAD CHANGE FOR EACH ITERATION:

    HEAD CHANGE   HEAD CHANGE   HEAD CHANGE   HEAD CHANGE   HEAD CHANGE
  LAYER,ROW,COL LAYER,ROW,COL LAYER,ROW,COL LAYER,ROW,COL LAYER,ROW,COL
 ----------------------------------------------------------------------
     0.1471        0.4642E-01    0.1249E-01   -0.1566E-02   -0.8306E-04
  (  1, 51,  1) (  1, 29,  2) (  1, 13,  1) (  1, 33, 48) (  1,  4,  1)


 HEAD/DRAWDOWN PRINTOUT FLAG = 1     TOTAL BUDGET PRINTOUT FLAG = 1
 CELL-BY-CELL FLOW TERM FLAG = 1

 OUTPUT FLAGS FOR EACH LAYER:
          HEAD    DRAWDOWN  HEAD  DRAWDOWN
 LAYER  PRINTOUT  PRINTOUT  SAVE    SAVE
 -----------------------------------------
    1       0         0       1       1
 UBUDSV SAVING "         STORAGE" ON UNIT 50 AT TIME STEP  5, STRESS PERIOD    1
 UBUDSV SAVING "   CONSTANT HEAD" ON UNIT 50 AT TIME STEP  5, STRESS PERIOD    1
 UBUDSV SAVING "FLOW RIGHT FACE " ON UNIT 50 AT TIME STEP  5, STRESS PERIOD    1
 UBUDSV SAVING "FLOW FRONT FACE " ON UNIT 50 AT TIME STEP  5, STRESS PERIOD    1
 UBUDSV SAVING "           WELLS" ON UNIT 50 AT TIME STEP  5, STRESS PERIOD    1

 SAVING SATURATED THICKNESS AND FLOW TERMS ON UNIT  333 FOR MT3DMS
 BY THE LINK-MT3DMS PACKAGE V7 AT TIME STEP    5, STRESS PERIOD    1


 HEAD WILL BE SAVED ON UNIT   51 AT END OF TIME STEP    5, STRESS PERIOD    1

 DRAWDOWN WILL BE SAVED ON UNIT   52 AT END OF TIME STEP    5, STRESS PERIOD    1
1
  VOLUMETRIC BUDGET FOR ENTIRE MODEL AT END OF TIME STEP    5, STRESS PERIOD   1
  ------------------------------------------------------------------------------

     CUMULATIVE VOLUMES      L**3       RATES FOR THIS TIME STEP      L**3/T
     ------------------                 ------------------------

           IN:                                      IN:
           ---                                      ---
             STORAGE =          23.1353               STORAGE =           2.3690
       CONSTANT HEAD =           0.0000         CONSTANT HEAD =           0.0000
               WELLS =           8.9250                 WELLS =           1.7850

            TOTAL IN =          32.0603              TOTAL IN =           4.1540

          OUT:                                     OUT:
          ----                                     ----
             STORAGE =          21.8603               STORAGE =           2.1140
       CONSTANT HEAD =           0.0000         CONSTANT HEAD =           0.0000
               WELLS =          10.2000                 WELLS =           2.0400

           TOTAL OUT =          32.0603             TOTAL OUT =           4.1540

            IN - OUT =      -2.2888E-05              IN - OUT =       4.9591E-05

 PERCENT DISCREPANCY =          -0.00     PERCENT DISCREPANCY =           0.00






         TIME SUMMARY AT END OF TIME STEP    5 IN STRESS PERIOD    1
                    SECONDS     MINUTES      HOURS       DAYS        YEARS
                    -----------------------------------------------------------
   TIME STEP LENGTH 1.00000     1.66667E-02 2.77778E-04 1.15741E-05 3.16881E-08
 STRESS PERIOD TIME  5.0000     8.33333E-02 1.38889E-03 5.78704E-05 1.58440E-07
         TOTAL TIME  5.0000     8.33333E-02 1.38889E-03 5.78704E-05 1.58440E-07
1
 
 SOLVING FOR HEAD 
     5 ITERATIONS FOR TIME STEP   6 IN STRESS PERIOD    1

 MAXIMUM HEAD CHANGE FOR EACH ITERATION:

    HEAD CHANGE   HEAD CHANGE   HEAD CHANGE   HEAD CHANGE   HEAD CHANGE
  LAYER,ROW,COL LAYER,ROW,COL LAYER,ROW,COL LAYER,ROW,COL LAYER,ROW,COL
 ----------------------------------------------------------------------
     0.1122        0.3956E-01    0.1101E-01   -0.1491E-02   -0.7600E-04
  (  1, 51,  1) (  1, 29,  2) (  1, 12,  2) (  1, 34, 48) (  1, 51, 51)


 HEAD/DRAWDOWN PRINTOUT FLAG = 1     TOTAL BUDGET PRINTOUT FLAG = 1
 CELL-BY-CELL FLOW TERM FLAG = 1

 OUTPUT FLAGS FOR EACH LAYER:
          HEAD    DRAWDOWN  HEAD  DRAWDOWN
 LAYER  PRINTOUT  PRINTOUT  SAVE    SAVE
 -----------------------------------------
    1       0         0       1       1
 UBUDSV SAVING "         STORAGE" ON UNIT 50 AT TIME STEP  6, STRESS PERIOD    1
 UBUDSV SAVING "   CONSTANT HEAD" ON UNIT 50 AT TIME STEP  6, STRESS PERIOD    1
 UBUDSV SAVING "FLOW RIGHT FACE " ON UNIT 50 AT TIME STEP  6, STRESS PERIOD    1
 UBUDSV SAVING "FLOW FRONT FACE " ON UNIT 50 AT TIME STEP  6, STRESS PERIOD    1
 UBUDSV SAVING "           WELLS" ON UNIT 50 AT TIME STEP  6, STRESS PERIOD    1

 SAVING SATURATED THICKNESS AND FLOW TERMS ON UNIT  333 FOR MT3DMS
 BY THE LINK-MT3DMS PACKAGE V7 AT TIME STEP    6, STRESS PERIOD    1


 HEAD WILL BE SAVED ON UNIT   51 AT END OF TIME STEP    6, STRESS PERIOD    1

 DRAWDOWN WILL BE SAVED ON UNIT   52 AT END OF TIME STEP    6, STRESS PERIOD    1
1
  VOLUMETRIC BUDGET FOR ENTIRE MODEL AT END OF TIME STEP    6, STRESS PERIOD   1
  ------------------------------------------------------------------------------

     CUMULATIVE VOLUMES      L**3       RATES FOR THIS TIME STEP      L**3/T
     ------------------                 ------------------------

           IN:                                      IN:
           ---                                      ---
             STORAGE =          25.4016               STORAGE =           2.2663
       CONSTANT HEAD =           0.0000         CONSTANT HEAD =           0.0000
               WELLS =          10.7100                 WELLS =           1.7850

            TOTAL IN =          36.1116              TOTAL IN =           4.0513

          OUT:                                     OUT:
          ----                                     ----
             STORAGE =          23.8715               STORAGE =           2.0112
       CONSTANT HEAD =           0.0000         CONSTANT HEAD =           0.0000
               WELLS =          12.2400                 WELLS =           2.0400

           TOTAL OUT =          36.1115             TOTAL OUT =           4.0512

            IN - OUT =       2.6703E-05              IN - OUT =       4.6253E-05

 PERCENT DISCREPANCY =           0.00     PERCENT DISCREPANCY =           0.00






         TIME SUMMARY AT END OF TIME STEP    6 IN STRESS PERIOD    1
                    SECONDS     MINUTES      HOURS       DAYS        YEARS
                    -----------------------------------------------------------
   TIME STEP LENGTH 1.00000     1.66667E-02 2.77778E-04 1.15741E-05 3.16881E-08
 STRESS PERIOD TIME  6.0000     1.00000E-01 1.66667E-03 6.94444E-05 1.90129E-07
         TOTAL TIME  6.0000     1.00000E-01 1.66667E-03 6.94444E-05 1.90129E-07
1
 
 SOLVING FOR HEAD 
     5 ITERATIONS FOR TIME STEP   7 IN STRESS PERIOD    1

 MAXIMUM HEAD CHANGE FOR EACH ITERATION:

    HEAD CHANGE   HEAD CHANGE   HEAD CHANGE   HEAD CHANGE   HEAD CHANGE
  LAYER,ROW,COL LAYER,ROW,COL LAYER,ROW,COL LAYER,ROW,COL LAYER,ROW,COL
 ----------------------------------------------------------------------
     0.9094E-01    0.3456E-01    0.9970E-02   -0.1429E-02   -0.7335E-04
  (  1, 51,  1) (  1, 29,  2) (  1, 11,  2) (  1, 34, 48) (  1, 51, 51)


 HEAD/DRAWDOWN PRINTOUT FLAG = 1     TOTAL BUDGET PRINTOUT FLAG = 1
 CELL-BY-CELL FLOW TERM FLAG = 1

 OUTPUT FLAGS FOR EACH LAYER:
          HEAD    DRAWDOWN  HEAD  DRAWDOWN
 LAYER  PRINTOUT  PRINTOUT  SAVE    SAVE
 -----------------------------------------
    1       0         0       1       1
 UBUDSV SAVING "         STORAGE" ON UNIT 50 AT TIME STEP  7, STRESS PERIOD    1
 UBUDSV SAVING "   CONSTANT HEAD" ON UNIT 50 AT TIME STEP  7, STRESS PERIOD    1
 UBUDSV SAVING "FLOW RIGHT FACE " ON UNIT 50 AT TIME STEP  7, STRESS PERIOD    1
 UBUDSV SAVING "FLOW FRONT FACE " ON UNIT 50 AT TIME STEP  7, STRESS PERIOD    1
 UBUDSV SAVING "           WELLS" ON UNIT 50 AT TIME STEP  7, STRESS PERIOD    1

 SAVING SATURATED THICKNESS AND FLOW TERMS ON UNIT  333 FOR MT3DMS
 BY THE LINK-MT3DMS PACKAGE V7 AT TIME STEP    7, STRESS PERIOD    1


 HEAD WILL BE SAVED ON UNIT   51 AT END OF TIME STEP    7, STRESS PERIOD    1

 DRAWDOWN WILL BE SAVED ON UNIT   52 AT END OF TIME STEP    7, STRESS PERIOD    1
1
  VOLUMETRIC BUDGET FOR ENTIRE MODEL AT END OF TIME STEP    7, STRESS PERIOD   1
  ------------------------------------------------------------------------------

     CUMULATIVE VOLUMES      L**3       RATES FOR THIS TIME STEP      L**3/T
     ------------------                 ------------------------

           IN:                                      IN:
           ---                                      ---
             STORAGE =          27.6018               STORAGE =           2.2003
       CONSTANT HEAD =           0.0000         CONSTANT HEAD =           0.0000
               WELLS =          12.4950                 WELLS =           1.7850

            TOTAL IN =          40.0968              TOTAL IN =           3.9853

          OUT:                                     OUT:
          ----                                     ----
             STORAGE =          25.8168               STORAGE =           1.9452
       CONSTANT HEAD =           0.0000         CONSTANT HEAD =           0.0000
               WELLS =          14.2800                 WELLS =           2.0400

           TOTAL OUT =          40.0968             TOTAL OUT =           3.9852

            IN - OUT =       6.8665E-05              IN - OUT =       4.1962E-05

 PERCENT DISCREPANCY =           0.00     PERCENT DISCREPANCY =           0.00






         TIME SUMMARY AT END OF TIME STEP    7 IN STRESS PERIOD    1
                    SECONDS     MINUTES      HOURS       DAYS        YEARS
                    -----------------------------------------------------------
   TIME STEP LENGTH 1.00000     1.66667E-02 2.77778E-04 1.15741E-05 3.16881E-08
 STRESS PERIOD TIME  7.0000     0.11667     1.94444E-03 8.10185E-05 2.21817E-07
         TOTAL TIME  7.0000     0.11667     1.94444E-03 8.10185E-05 2.21817E-07
1
 
 SOLVING FOR HEAD 
     5 ITERATIONS FOR TIME STEP   8 IN STRESS PERIOD    1

 MAXIMUM HEAD CHANGE FOR EACH ITERATION:

    HEAD CHANGE   HEAD CHANGE   HEAD CHANGE   HEAD CHANGE   HEAD CHANGE
  LAYER,ROW,COL LAYER,ROW,COL LAYER,ROW,COL LAYER,ROW,COL LAYER,ROW,COL
 ----------------------------------------------------------------------
     0.7681E-01    0.3079E-01    0.9129E-02   -0.1374E-02   -0.7108E-04
  (  1, 51,  1) (  1, 29,  2) (  1, 10,  2) (  1, 34, 48) (  1, 51, 51)


 HEAD/DRAWDOWN PRINTOUT FLAG = 1     TOTAL BUDGET PRINTOUT FLAG = 1
 CELL-BY-CELL FLOW TERM FLAG = 1

 OUTPUT FLAGS FOR EACH LAYER:
          HEAD    DRAWDOWN  HEAD  DRAWDOWN
 LAYER  PRINTOUT  PRINTOUT  SAVE    SAVE
 -----------------------------------------
    1       0         0       1       1
 UBUDSV SAVING "         STORAGE" ON UNIT 50 AT TIME STEP  8, STRESS PERIOD    1
 UBUDSV SAVING "   CONSTANT HEAD" ON UNIT 50 AT TIME STEP  8, STRESS PERIOD    1
 UBUDSV SAVING "FLOW RIGHT FACE " ON UNIT 50 AT TIME STEP  8, STRESS PERIOD    1
 UBUDSV SAVING "FLOW FRONT FACE " ON UNIT 50 AT TIME STEP  8, STRESS PERIOD    1
 UBUDSV SAVING "           WELLS" ON UNIT 50 AT TIME STEP  8, STRESS PERIOD    1

 SAVING SATURATED THICKNESS AND FLOW TERMS ON UNIT  333 FOR MT3DMS
 BY THE LINK-MT3DMS PACKAGE V7 AT TIME STEP    8, STRESS PERIOD    1


 HEAD WILL BE SAVED ON UNIT   51 AT END OF TIME STEP    8, STRESS PERIOD    1

 DRAWDOWN WILL BE SAVED ON UNIT   52 AT END OF TIME STEP    8, STRESS PERIOD    1
1
  VOLUMETRIC BUDGET FOR ENTIRE MODEL AT END OF TIME STEP    8, STRESS PERIOD   1
  ------------------------------------------------------------------------------

     CUMULATIVE VOLUMES      L**3       RATES FOR THIS TIME STEP      L**3/T
     ------------------                 ------------------------

           IN:                                      IN:
           ---                                      ---
             STORAGE =          29.7581               STORAGE =           2.1563
       CONSTANT HEAD =           0.0000         CONSTANT HEAD =           0.0000
               WELLS =          14.2800                 WELLS =           1.7850

            TOTAL IN =          44.0381              TOTAL IN =           3.9413

          OUT:                                     OUT:
          ----                                     ----
             STORAGE =          27.7180               STORAGE =           1.9012
       CONSTANT HEAD =           0.0000         CONSTANT HEAD =           0.0000
               WELLS =          16.3200                 WELLS =           2.0400

           TOTAL OUT =          44.0380             TOTAL OUT =           3.9412

            IN - OUT =       1.0300E-04              IN - OUT =       3.6240E-05

 PERCENT DISCREPANCY =           0.00     PERCENT DISCREPANCY =           0.00






         TIME SUMMARY AT END OF TIME STEP    8 IN STRESS PERIOD    1
                    SECONDS     MINUTES      HOURS       DAYS        YEARS
                    -----------------------------------------------------------
   TIME STEP LENGTH 1.00000     1.66667E-02 2.77778E-04 1.15741E-05 3.16881E-08
 STRESS PERIOD TIME  8.0000     0.13333     2.22222E-03 9.25926E-05 2.53505E-07
         TOTAL TIME  8.0000     0.13333     2.22222E-03 9.25926E-05 2.53505E-07
1
 
 SOLVING FOR HEAD 
     5 ITERATIONS FOR TIME STEP   9 IN STRESS PERIOD    1

 MAXIMUM HEAD CHANGE FOR EACH ITERATION:

    HEAD CHANGE   HEAD CHANGE   HEAD CHANGE   HEAD CHANGE   HEAD CHANGE
  LAYER,ROW,COL LAYER,ROW,COL LAYER,ROW,COL LAYER,ROW,COL LAYER,ROW,COL
 ----------------------------------------------------------------------
     0.6679E-01    0.2787E-01    0.8465E-02   -0.1325E-02   -0.6911E-04
  (  1, 51,  1) (  1, 29,  2) (  1, 25,  2) (  1, 35, 48) (  1, 51, 51)


 HEAD/DRAWDOWN PRINTOUT FLAG = 1     TOTAL BUDGET PRINTOUT FLAG = 1
 CELL-BY-CELL FLOW TERM FLAG = 1

 OUTPUT FLAGS FOR EACH LAYER:
          HEAD    DRAWDOWN  HEAD  DRAWDOWN
 LAYER  PRINTOUT  PRINTOUT  SAVE    SAVE
 -----------------------------------------
    1       0         0       1       1
 UBUDSV SAVING "         STORAGE" ON UNIT 50 AT TIME STEP  9, STRESS PERIOD    1
 UBUDSV SAVING "   CONSTANT HEAD" ON UNIT 50 AT TIME STEP  9, STRESS PERIOD    1
 UBUDSV SAVING "FLOW RIGHT FACE " ON UNIT 50 AT TIME STEP  9, STRESS PERIOD    1
 UBUDSV SAVING "FLOW FRONT FACE " ON UNIT 50 AT TIME STEP  9, STRESS PERIOD    1
 UBUDSV SAVING "           WELLS" ON UNIT 50 AT TIME STEP  9, STRESS PERIOD    1

 SAVING SATURATED THICKNESS AND FLOW TERMS ON UNIT  333 FOR MT3DMS
 BY THE LINK-MT3DMS PACKAGE V7 AT TIME STEP    9, STRESS PERIOD    1


 HEAD WILL BE SAVED ON UNIT   51 AT END OF TIME STEP    9, STRESS PERIOD    1

 DRAWDOWN WILL BE SAVED ON UNIT   52 AT END OF TIME STEP    9, STRESS PERIOD    1
1
  VOLUMETRIC BUDGET FOR ENTIRE MODEL AT END OF TIME STEP    9, STRESS PERIOD   1
  ------------------------------------------------------------------------------

     CUMULATIVE VOLUMES      L**3       RATES FOR THIS TIME STEP      L**3/T
     ------------------                 ------------------------

           IN:                                      IN:
           ---                                      ---
             STORAGE =          31.8848               STORAGE =           2.1267
       CONSTANT HEAD =           0.0000         CONSTANT HEAD =           0.0000
               WELLS =          16.0650                 WELLS =           1.7850

            TOTAL IN =          47.9498              TOTAL IN =           3.9117

          OUT:                                     OUT:
          ----                                     ----
             STORAGE =          29.5897               STORAGE =           1.8717
       CONSTANT HEAD =           0.0000         CONSTANT HEAD =           0.0000
               WELLS =          18.3600                 WELLS =           2.0400

           TOTAL OUT =          47.9497             TOTAL OUT =           3.9117

            IN - OUT =       1.4496E-04              IN - OUT =       3.7193E-05

 PERCENT DISCREPANCY =           0.00     PERCENT DISCREPANCY =           0.00






         TIME SUMMARY AT END OF TIME STEP    9 IN STRESS PERIOD    1
                    SECONDS     MINUTES      HOURS       DAYS        YEARS
                    -----------------------------------------------------------
   TIME STEP LENGTH 1.00000     1.66667E-02 2.77778E-04 1.15741E-05 3.16881E-08
 STRESS PERIOD TIME  9.0000     0.15000     2.50000E-03 1.04167E-04 2.85193E-07
         TOTAL TIME  9.0000     0.15000     2.50000E-03 1.04167E-04 2.85193E-07
1
 
 SOLVING FOR HEAD 
     5 ITERATIONS FOR TIME STEP  10 IN STRESS PERIOD    1

 MAXIMUM HEAD CHANGE FOR EACH ITERATION:

    HEAD CHANGE   HEAD CHANGE   HEAD CHANGE   HEAD CHANGE   HEAD CHANGE
  LAYER,ROW,COL LAYER,ROW,COL LAYER,ROW,COL LAYER,ROW,COL LAYER,ROW,COL
 ----------------------------------------------------------------------
     0.5932E-01    0.2554E-01    0.7929E-02   -0.1280E-02   -0.6733E-04
  (  1, 51,  1) (  1, 29,  2) (  1, 25,  2) (  1, 35, 48) (  1, 51, 51)


 HEAD/DRAWDOWN PRINTOUT FLAG = 1     TOTAL BUDGET PRINTOUT FLAG = 1
 CELL-BY-CELL FLOW TERM FLAG = 1

 OUTPUT FLAGS FOR EACH LAYER:
          HEAD    DRAWDOWN  HEAD  DRAWDOWN
 LAYER  PRINTOUT  PRINTOUT  SAVE    SAVE
 -----------------------------------------
    1       0         0       1       1
 UBUDSV SAVING "         STORAGE" ON UNIT 50 AT TIME STEP 10, STRESS PERIOD    1
 UBUDSV SAVING "   CONSTANT HEAD" ON UNIT 50 AT TIME STEP 10, STRESS PERIOD    1
 UBUDSV SAVING "FLOW RIGHT FACE " ON UNIT 50 AT TIME STEP 10, STRESS PERIOD    1
 UBUDSV SAVING "FLOW FRONT FACE " ON UNIT 50 AT TIME STEP 10, STRESS PERIOD    1
 UBUDSV SAVING "           WELLS" ON UNIT 50 AT TIME STEP 10, STRESS PERIOD    1

 SAVING SATURATED THICKNESS AND FLOW TERMS ON UNIT  333 FOR MT3DMS
 BY THE LINK-MT3DMS PACKAGE V7 AT TIME STEP   10, STRESS PERIOD    1


 HEAD WILL BE SAVED ON UNIT   51 AT END OF TIME STEP   10, STRESS PERIOD    1

 DRAWDOWN WILL BE SAVED ON UNIT   52 AT END OF TIME STEP   10, STRESS PERIOD    1
1
  VOLUMETRIC BUDGET FOR ENTIRE MODEL AT END OF TIME STEP   10, STRESS PERIOD   1
  ------------------------------------------------------------------------------

     CUMULATIVE VOLUMES      L**3       RATES FOR THIS TIME STEP      L**3/T
     ------------------                 ------------------------

           IN:                                      IN:
           ---                                      ---
             STORAGE =          33.9901               STORAGE =           2.1053
       CONSTANT HEAD =           0.0000         CONSTANT HEAD =           0.0000
               WELLS =          17.8500                 WELLS =           1.7850

            TOTAL IN =          51.8401              TOTAL IN =           3.8903

          OUT:                                     OUT:
          ----                                     ----
             STORAGE =          31.4399               STORAGE =           1.8502
       CONSTANT HEAD =           0.0000         CONSTANT HEAD =           0.0000
               WELLS =          20.4000                 WELLS =           2.0400

           TOTAL OUT =          51.8399             TOTAL OUT =           3.8902

            IN - OUT =       1.7548E-04              IN - OUT =       3.3379E-05

 PERCENT DISCREPANCY =           0.00     PERCENT DISCREPANCY =           0.00






         TIME SUMMARY AT END OF TIME STEP   10 IN STRESS PERIOD    1
                    SECONDS     MINUTES      HOURS       DAYS        YEARS
                    -----------------------------------------------------------
   TIME STEP LENGTH 1.00000     1.66667E-02 2.77778E-04 1.15741E-05 3.16881E-08
 STRESS PERIOD TIME 10.0000     0.16667     2.77778E-03 1.15741E-04 3.16881E-07
         TOTAL TIME 10.0000     0.16667     2.77778E-03 1.15741E-04 3.16881E-07
1
 
 SOLVING FOR HEAD 
     5 ITERATIONS FOR TIME STEP  11 IN STRESS PERIOD    1

 MAXIMUM HEAD CHANGE FOR EACH ITERATION:

    HEAD CHANGE   HEAD CHANGE   HEAD CHANGE   HEAD CHANGE   HEAD CHANGE
  LAYER,ROW,COL LAYER,ROW,COL LAYER,ROW,COL LAYER,ROW,COL LAYER,ROW,COL
 ----------------------------------------------------------------------
     0.5354E-01    0.2364E-01    0.7482E-02   -0.1239E-02   -0.6571E-04
  (  1, 51,  1) (  1, 29,  2) (  1, 26,  2) (  1, 36, 48) (  1, 51, 51)


 HEAD/DRAWDOWN PRINTOUT FLAG = 1     TOTAL BUDGET PRINTOUT FLAG = 1
 CELL-BY-CELL FLOW TERM FLAG = 1

 OUTPUT FLAGS FOR EACH LAYER:
          HEAD    DRAWDOWN  HEAD  DRAWDOWN
 LAYER  PRINTOUT  PRINTOUT  SAVE    SAVE
 -----------------------------------------
    1       0         0       1       1
 UBUDSV SAVING "         STORAGE" ON UNIT 50 AT TIME STEP 11, STRESS PERIOD    1
 UBUDSV SAVING "   CONSTANT HEAD" ON UNIT 50 AT TIME STEP 11, STRESS PERIOD    1
 UBUDSV SAVING "FLOW RIGHT FACE " ON UNIT 50 AT TIME STEP 11, STRESS PERIOD    1
 UBUDSV SAVING "FLOW FRONT FACE " ON UNIT 50 AT TIME STEP 11, STRESS PERIOD    1
 UBUDSV SAVING "           WELLS" ON UNIT 50 AT TIME STEP 11, STRESS PERIOD    1

 SAVING SATURATED THICKNESS AND FLOW TERMS ON UNIT  333 FOR MT3DMS
 BY THE LINK-MT3DMS PACKAGE V7 AT TIME STEP   11, STRESS PERIOD    1


 HEAD WILL BE SAVED ON UNIT   51 AT END OF TIME STEP   11, STRESS PERIOD    1

 DRAWDOWN WILL BE SAVED ON UNIT   52 AT END OF TIME STEP   11, STRESS PERIOD    1
1
  VOLUMETRIC BUDGET FOR ENTIRE MODEL AT END OF TIME STEP   11, STRESS PERIOD   1
  ------------------------------------------------------------------------------

     CUMULATIVE VOLUMES      L**3       RATES FOR THIS TIME STEP      L**3/T
     ------------------                 ------------------------

           IN:                                      IN:
           ---                                      ---
             STORAGE =          36.0793               STORAGE =           2.0892
       CONSTANT HEAD =           0.0000         CONSTANT HEAD =           0.0000
               WELLS =          19.6350                 WELLS =           1.7850

            TOTAL IN =          55.7143              TOTAL IN =           3.8742

          OUT:                                     OUT:
          ----                                     ----
             STORAGE =          33.2741               STORAGE =           1.8341
       CONSTANT HEAD =           0.0000         CONSTANT HEAD =           0.0000
               WELLS =          22.4400                 WELLS =           2.0400

           TOTAL OUT =          55.7141             TOTAL OUT =           3.8741

            IN - OUT =       2.0981E-04              IN - OUT =       3.3855E-05

 PERCENT DISCREPANCY =           0.00     PERCENT DISCREPANCY =           0.00






         TIME SUMMARY AT END OF TIME STEP   11 IN STRESS PERIOD    1
                    SECONDS     MINUTES      HOURS       DAYS        YEARS
                    -----------------------------------------------------------
   TIME STEP LENGTH 1.00000     1.66667E-02 2.77778E-04 1.15741E-05 3.16881E-08
 STRESS PERIOD TIME  11.000     0.18333     3.05556E-03 1.27315E-04 3.48569E-07
         TOTAL TIME  11.000     0.18333     3.05556E-03 1.27315E-04 3.48569E-07
1
 
 SOLVING FOR HEAD 
     5 ITERATIONS FOR TIME STEP  12 IN STRESS PERIOD    1

 MAXIMUM HEAD CHANGE FOR EACH ITERATION:

    HEAD CHANGE   HEAD CHANGE   HEAD CHANGE   HEAD CHANGE   HEAD CHANGE
  LAYER,ROW,COL LAYER,ROW,COL LAYER,ROW,COL LAYER,ROW,COL LAYER,ROW,COL
 ----------------------------------------------------------------------
     0.4893E-01    0.2206E-01    0.7101E-02   -0.1202E-02   -0.6423E-04
  (  1, 51,  1) (  1, 29,  2) (  1, 26,  2) (  1, 36, 47) (  1, 51, 51)


 HEAD/DRAWDOWN PRINTOUT FLAG = 1     TOTAL BUDGET PRINTOUT FLAG = 1
 CELL-BY-CELL FLOW TERM FLAG = 1

 OUTPUT FLAGS FOR EACH LAYER:
          HEAD    DRAWDOWN  HEAD  DRAWDOWN
 LAYER  PRINTOUT  PRINTOUT  SAVE    SAVE
 -----------------------------------------
    1       0         0       1       1
 UBUDSV SAVING "         STORAGE" ON UNIT 50 AT TIME STEP 12, STRESS PERIOD    1
 UBUDSV SAVING "   CONSTANT HEAD" ON UNIT 50 AT TIME STEP 12, STRESS PERIOD    1
 UBUDSV SAVING "FLOW RIGHT FACE " ON UNIT 50 AT TIME STEP 12, STRESS PERIOD    1
 UBUDSV SAVING "FLOW FRONT FACE " ON UNIT 50 AT TIME STEP 12, STRESS PERIOD    1
 UBUDSV SAVING "           WELLS" ON UNIT 50 AT TIME STEP 12, STRESS PERIOD    1

 SAVING SATURATED THICKNESS AND FLOW TERMS ON UNIT  333 FOR MT3DMS
 BY THE LINK-MT3DMS PACKAGE V7 AT TIME STEP   12, STRESS PERIOD    1


 HEAD WILL BE SAVED ON UNIT   51 AT END OF TIME STEP   12, STRESS PERIOD    1

 DRAWDOWN WILL BE SAVED ON UNIT   52 AT END OF TIME STEP   12, STRESS PERIOD    1
1
  VOLUMETRIC BUDGET FOR ENTIRE MODEL AT END OF TIME STEP   12, STRESS PERIOD   1
  ------------------------------------------------------------------------------

     CUMULATIVE VOLUMES      L**3       RATES FOR THIS TIME STEP      L**3/T
     ------------------                 ------------------------

           IN:                                      IN:
           ---                                      ---
             STORAGE =          38.1558               STORAGE =           2.0765
       CONSTANT HEAD =           0.0000         CONSTANT HEAD =           0.0000
               WELLS =          21.4200                 WELLS =           1.7850

            TOTAL IN =          59.5758              TOTAL IN =           3.8615

          OUT:                                     OUT:
          ----                                     ----
             STORAGE =          35.0956               STORAGE =           1.8215
       CONSTANT HEAD =           0.0000         CONSTANT HEAD =           0.0000
               WELLS =          24.4800                 WELLS =           2.0400

           TOTAL OUT =          59.5756             TOTAL OUT =           3.8615

            IN - OUT =       2.3651E-04              IN - OUT =       3.0041E-05

 PERCENT DISCREPANCY =           0.00     PERCENT DISCREPANCY =           0.00






         TIME SUMMARY AT END OF TIME STEP   12 IN STRESS PERIOD    1
                    SECONDS     MINUTES      HOURS       DAYS        YEARS
                    -----------------------------------------------------------
   TIME STEP LENGTH 1.00000     1.66667E-02 2.77778E-04 1.15741E-05 3.16881E-08
 STRESS PERIOD TIME  12.000     0.20000     3.33333E-03 1.38889E-04 3.80257E-07
         TOTAL TIME  12.000     0.20000     3.33333E-03 1.38889E-04 3.80257E-07
1
 
 SOLVING FOR HEAD 
     5 ITERATIONS FOR TIME STEP  13 IN STRESS PERIOD    1

 MAXIMUM HEAD CHANGE FOR EACH ITERATION:

    HEAD CHANGE   HEAD CHANGE   HEAD CHANGE   HEAD CHANGE   HEAD CHANGE
  LAYER,ROW,COL LAYER,ROW,COL LAYER,ROW,COL LAYER,ROW,COL LAYER,ROW,COL
 ----------------------------------------------------------------------
     0.4516E-01    0.2072E-01   -0.6786E-02   -0.1169E-02   -0.6283E-04
  (  1, 51,  1) (  1, 29,  2) (  1, 45, 48) (  1, 36, 47) (  1, 51, 51)


 HEAD/DRAWDOWN PRINTOUT FLAG = 1     TOTAL BUDGET PRINTOUT FLAG = 1
 CELL-BY-CELL FLOW TERM FLAG = 1

 OUTPUT FLAGS FOR EACH LAYER:
          HEAD    DRAWDOWN  HEAD  DRAWDOWN
 LAYER  PRINTOUT  PRINTOUT  SAVE    SAVE
 -----------------------------------------
    1       0         0       1       1
 UBUDSV SAVING "         STORAGE" ON UNIT 50 AT TIME STEP 13, STRESS PERIOD    1
 UBUDSV SAVING "   CONSTANT HEAD" ON UNIT 50 AT TIME STEP 13, STRESS PERIOD    1
 UBUDSV SAVING "FLOW RIGHT FACE " ON UNIT 50 AT TIME STEP 13, STRESS PERIOD    1
 UBUDSV SAVING "FLOW FRONT FACE " ON UNIT 50 AT TIME STEP 13, STRESS PERIOD    1
 UBUDSV SAVING "           WELLS" ON UNIT 50 AT TIME STEP 13, STRESS PERIOD    1

 SAVING SATURATED THICKNESS AND FLOW TERMS ON UNIT  333 FOR MT3DMS
 BY THE LINK-MT3DMS PACKAGE V7 AT TIME STEP   13, STRESS PERIOD    1


 HEAD WILL BE SAVED ON UNIT   51 AT END OF TIME STEP   13, STRESS PERIOD    1

 DRAWDOWN WILL BE SAVED ON UNIT   52 AT END OF TIME STEP   13, STRESS PERIOD    1
1
  VOLUMETRIC BUDGET FOR ENTIRE MODEL AT END OF TIME STEP   13, STRESS PERIOD   1
  ------------------------------------------------------------------------------

     CUMULATIVE VOLUMES      L**3       RATES FOR THIS TIME STEP      L**3/T
     ------------------                 ------------------------

           IN:                                      IN:
           ---                                      ---
             STORAGE =          40.2213               STORAGE =           2.0655
       CONSTANT HEAD =           0.0000         CONSTANT HEAD =           0.0000
               WELLS =          23.2050                 WELLS =           1.7850

            TOTAL IN =          63.4263              TOTAL IN =           3.8505

          OUT:                                     OUT:
          ----                                     ----
             STORAGE =          36.9060               STORAGE =           1.8104
       CONSTANT HEAD =           0.0000         CONSTANT HEAD =           0.0000
               WELLS =          26.5200                 WELLS =           2.0400

           TOTAL OUT =          63.4260             TOTAL OUT =           3.8504

            IN - OUT =       2.6703E-04              IN - OUT =       3.0041E-05

 PERCENT DISCREPANCY =           0.00     PERCENT DISCREPANCY =           0.00






         TIME SUMMARY AT END OF TIME STEP   13 IN STRESS PERIOD    1
                    SECONDS     MINUTES      HOURS       DAYS        YEARS
                    -----------------------------------------------------------
   TIME STEP LENGTH 1.00000     1.66667E-02 2.77778E-04 1.15741E-05 3.16881E-08
 STRESS PERIOD TIME  13.000     0.21667     3.61111E-03 1.50463E-04 4.11945E-07
         TOTAL TIME  13.000     0.21667     3.61111E-03 1.50463E-04 4.11945E-07
1
 
 SOLVING FOR HEAD 
     5 ITERATIONS FOR TIME STEP  14 IN STRESS PERIOD    1

 MAXIMUM HEAD CHANGE FOR EACH ITERATION:

    HEAD CHANGE   HEAD CHANGE   HEAD CHANGE   HEAD CHANGE   HEAD CHANGE
  LAYER,ROW,COL LAYER,ROW,COL LAYER,ROW,COL LAYER,ROW,COL LAYER,ROW,COL
 ----------------------------------------------------------------------
     0.4202E-01    0.1958E-01   -0.6613E-02   -0.1139E-02   -0.6155E-04
  (  1, 51,  1) (  1, 29,  2) (  1, 45, 48) (  1, 37, 47) (  1, 51, 51)


 HEAD/DRAWDOWN PRINTOUT FLAG = 1     TOTAL BUDGET PRINTOUT FLAG = 1
 CELL-BY-CELL FLOW TERM FLAG = 1

 OUTPUT FLAGS FOR EACH LAYER:
          HEAD    DRAWDOWN  HEAD  DRAWDOWN
 LAYER  PRINTOUT  PRINTOUT  SAVE    SAVE
 -----------------------------------------
    1       0         0       1       1
 UBUDSV SAVING "         STORAGE" ON UNIT 50 AT TIME STEP 14, STRESS PERIOD    1
 UBUDSV SAVING "   CONSTANT HEAD" ON UNIT 50 AT TIME STEP 14, STRESS PERIOD    1
 UBUDSV SAVING "FLOW RIGHT FACE " ON UNIT 50 AT TIME STEP 14, STRESS PERIOD    1
 UBUDSV SAVING "FLOW FRONT FACE " ON UNIT 50 AT TIME STEP 14, STRESS PERIOD    1
 UBUDSV SAVING "           WELLS" ON UNIT 50 AT TIME STEP 14, STRESS PERIOD    1

 SAVING SATURATED THICKNESS AND FLOW TERMS ON UNIT  333 FOR MT3DMS
 BY THE LINK-MT3DMS PACKAGE V7 AT TIME STEP   14, STRESS PERIOD    1


 HEAD WILL BE SAVED ON UNIT   51 AT END OF TIME STEP   14, STRESS PERIOD    1

 DRAWDOWN WILL BE SAVED ON UNIT   52 AT END OF TIME STEP   14, STRESS PERIOD    1
1
  VOLUMETRIC BUDGET FOR ENTIRE MODEL AT END OF TIME STEP   14, STRESS PERIOD   1
  ------------------------------------------------------------------------------

     CUMULATIVE VOLUMES      L**3       RATES FOR THIS TIME STEP      L**3/T
     ------------------                 ------------------------

           IN:                                      IN:
           ---                                      ---
             STORAGE =          42.2765               STORAGE =           2.0552
       CONSTANT HEAD =           0.0000         CONSTANT HEAD =           0.0000
               WELLS =          24.9900                 WELLS =           1.7850

            TOTAL IN =          67.2665              TOTAL IN =           3.8402

          OUT:                                     OUT:
          ----                                     ----
             STORAGE =          38.7062               STORAGE =           1.8002
       CONSTANT HEAD =           0.0000         CONSTANT HEAD =           0.0000
               WELLS =          28.5600                 WELLS =           2.0400

           TOTAL OUT =          67.2662             TOTAL OUT =           3.8402

            IN - OUT =       2.8992E-04              IN - OUT =       2.8610E-05

 PERCENT DISCREPANCY =           0.00     PERCENT DISCREPANCY =           0.00






         TIME SUMMARY AT END OF TIME STEP   14 IN STRESS PERIOD    1
                    SECONDS     MINUTES      HOURS       DAYS        YEARS
                    -----------------------------------------------------------
   TIME STEP LENGTH 1.00000     1.66667E-02 2.77778E-04 1.15741E-05 3.16881E-08
 STRESS PERIOD TIME  14.000     0.23333     3.88889E-03 1.62037E-04 4.43633E-07
         TOTAL TIME  14.000     0.23333     3.88889E-03 1.62037E-04 4.43633E-07
1
 
 SOLVING FOR HEAD 
     5 ITERATIONS FOR TIME STEP  15 IN STRESS PERIOD    1

 MAXIMUM HEAD CHANGE FOR EACH ITERATION:

    HEAD CHANGE   HEAD CHANGE   HEAD CHANGE   HEAD CHANGE   HEAD CHANGE
  LAYER,ROW,COL LAYER,ROW,COL LAYER,ROW,COL LAYER,ROW,COL LAYER,ROW,COL
 ----------------------------------------------------------------------
     0.3937E-01    0.1858E-01   -0.6454E-02   -0.1111E-02   -0.6032E-04
  (  1, 51,  1) (  1, 29,  2) (  1, 45, 48) (  1, 37, 47) (  1, 51, 51)


 HEAD/DRAWDOWN PRINTOUT FLAG = 1     TOTAL BUDGET PRINTOUT FLAG = 1
 CELL-BY-CELL FLOW TERM FLAG = 1

 OUTPUT FLAGS FOR EACH LAYER:
          HEAD    DRAWDOWN  HEAD  DRAWDOWN
 LAYER  PRINTOUT  PRINTOUT  SAVE    SAVE
 -----------------------------------------
    1       0         0       1       1
 UBUDSV SAVING "         STORAGE" ON UNIT 50 AT TIME STEP 15, STRESS PERIOD    1
 UBUDSV SAVING "   CONSTANT HEAD" ON UNIT 50 AT TIME STEP 15, STRESS PERIOD    1
 UBUDSV SAVING "FLOW RIGHT FACE " ON UNIT 50 AT TIME STEP 15, STRESS PERIOD    1
 UBUDSV SAVING "FLOW FRONT FACE " ON UNIT 50 AT TIME STEP 15, STRESS PERIOD    1
 UBUDSV SAVING "           WELLS" ON UNIT 50 AT TIME STEP 15, STRESS PERIOD    1

 SAVING SATURATED THICKNESS AND FLOW TERMS ON UNIT  333 FOR MT3DMS
 BY THE LINK-MT3DMS PACKAGE V7 AT TIME STEP   15, STRESS PERIOD    1


 HEAD WILL BE SAVED ON UNIT   51 AT END OF TIME STEP   15, STRESS PERIOD    1

 DRAWDOWN WILL BE SAVED ON UNIT   52 AT END OF TIME STEP   15, STRESS PERIOD    1
1
  VOLUMETRIC BUDGET FOR ENTIRE MODEL AT END OF TIME STEP   15, STRESS PERIOD   1
  ------------------------------------------------------------------------------

     CUMULATIVE VOLUMES      L**3       RATES FOR THIS TIME STEP      L**3/T
     ------------------                 ------------------------

           IN:                                      IN:
           ---                                      ---
             STORAGE =          44.3211               STORAGE =           2.0446
       CONSTANT HEAD =           0.0000         CONSTANT HEAD =           0.0000
               WELLS =          26.7750                 WELLS =           1.7850

            TOTAL IN =          71.0961              TOTAL IN =           3.8296

          OUT:                                     OUT:
          ----                                     ----
             STORAGE =          40.4957               STORAGE =           1.7895
       CONSTANT HEAD =           0.0000         CONSTANT HEAD =           0.0000
               WELLS =          30.6000                 WELLS =           2.0400

           TOTAL OUT =          71.0957             TOTAL OUT =           3.8295

            IN - OUT =       3.2043E-04              IN - OUT =       2.7657E-05

 PERCENT DISCREPANCY =           0.00     PERCENT DISCREPANCY =           0.00






         TIME SUMMARY AT END OF TIME STEP   15 IN STRESS PERIOD    1
                    SECONDS     MINUTES      HOURS       DAYS        YEARS
                    -----------------------------------------------------------
   TIME STEP LENGTH 1.00000     1.66667E-02 2.77778E-04 1.15741E-05 3.16881E-08
 STRESS PERIOD TIME  15.000     0.25000     4.16667E-03 1.73611E-04 4.75321E-07
         TOTAL TIME  15.000     0.25000     4.16667E-03 1.73611E-04 4.75321E-07
1
 
 SOLVING FOR HEAD 
     5 ITERATIONS FOR TIME STEP  16 IN STRESS PERIOD    1

 MAXIMUM HEAD CHANGE FOR EACH ITERATION:

    HEAD CHANGE   HEAD CHANGE   HEAD CHANGE   HEAD CHANGE   HEAD CHANGE
  LAYER,ROW,COL LAYER,ROW,COL LAYER,ROW,COL LAYER,ROW,COL LAYER,ROW,COL
 ----------------------------------------------------------------------
     0.3708E-01    0.1777E-01   -0.6307E-02   -0.1084E-02   -0.5918E-04
  (  1, 51,  1) (  1, 48,  2) (  1, 45, 48) (  1, 37, 47) (  1, 51, 51)


 HEAD/DRAWDOWN PRINTOUT FLAG = 1     TOTAL BUDGET PRINTOUT FLAG = 1
 CELL-BY-CELL FLOW TERM FLAG = 1

 OUTPUT FLAGS FOR EACH LAYER:
          HEAD    DRAWDOWN  HEAD  DRAWDOWN
 LAYER  PRINTOUT  PRINTOUT  SAVE    SAVE
 -----------------------------------------
    1       0         0       1       1
 UBUDSV SAVING "         STORAGE" ON UNIT 50 AT TIME STEP 16, STRESS PERIOD    1
 UBUDSV SAVING "   CONSTANT HEAD" ON UNIT 50 AT TIME STEP 16, STRESS PERIOD    1
 UBUDSV SAVING "FLOW RIGHT FACE " ON UNIT 50 AT TIME STEP 16, STRESS PERIOD    1
 UBUDSV SAVING "FLOW FRONT FACE " ON UNIT 50 AT TIME STEP 16, STRESS PERIOD    1
 UBUDSV SAVING "           WELLS" ON UNIT 50 AT TIME STEP 16, STRESS PERIOD    1

 SAVING SATURATED THICKNESS AND FLOW TERMS ON UNIT  333 FOR MT3DMS
 BY THE LINK-MT3DMS PACKAGE V7 AT TIME STEP   16, STRESS PERIOD    1


 HEAD WILL BE SAVED ON UNIT   51 AT END OF TIME STEP   16, STRESS PERIOD    1

 DRAWDOWN WILL BE SAVED ON UNIT   52 AT END OF TIME STEP   16, STRESS PERIOD    1
1
  VOLUMETRIC BUDGET FOR ENTIRE MODEL AT END OF TIME STEP   16, STRESS PERIOD   1
  ------------------------------------------------------------------------------

     CUMULATIVE VOLUMES      L**3       RATES FOR THIS TIME STEP      L**3/T
     ------------------                 ------------------------

           IN:                                      IN:
           ---                                      ---
             STORAGE =          46.3552               STORAGE =           2.0341
       CONSTANT HEAD =           0.0000         CONSTANT HEAD =           0.0000
               WELLS =          28.5600                 WELLS =           1.7850

            TOTAL IN =          74.9152              TOTAL IN =           3.8191

          OUT:                                     OUT:
          ----                                     ----
             STORAGE =          42.2748               STORAGE =           1.7791
       CONSTANT HEAD =           0.0000         CONSTANT HEAD =           0.0000
               WELLS =          32.6400                 WELLS =           2.0400

           TOTAL OUT =          74.9148             TOTAL OUT =           3.8191

            IN - OUT =       3.5095E-04              IN - OUT =       2.6703E-05

 PERCENT DISCREPANCY =           0.00     PERCENT DISCREPANCY =           0.00






         TIME SUMMARY AT END OF TIME STEP   16 IN STRESS PERIOD    1
                    SECONDS     MINUTES      HOURS       DAYS        YEARS
                    -----------------------------------------------------------
   TIME STEP LENGTH 1.00000     1.66667E-02 2.77778E-04 1.15741E-05 3.16881E-08
 STRESS PERIOD TIME  16.000     0.26667     4.44444E-03 1.85185E-04 5.07009E-07
         TOTAL TIME  16.000     0.26667     4.44444E-03 1.85185E-04 5.07009E-07
1
 
 SOLVING FOR HEAD 
     5 ITERATIONS FOR TIME STEP  17 IN STRESS PERIOD    1

 MAXIMUM HEAD CHANGE FOR EACH ITERATION:

    HEAD CHANGE   HEAD CHANGE   HEAD CHANGE   HEAD CHANGE   HEAD CHANGE
  LAYER,ROW,COL LAYER,ROW,COL LAYER,ROW,COL LAYER,ROW,COL LAYER,ROW,COL
 ----------------------------------------------------------------------
     0.3510E-01    0.1704E-01   -0.6171E-02   -0.1060E-02   -0.5808E-04
  (  1, 51,  1) (  1, 48,  2) (  1, 45, 48) (  1, 38, 47) (  1, 51, 51)


 HEAD/DRAWDOWN PRINTOUT FLAG = 1     TOTAL BUDGET PRINTOUT FLAG = 1
 CELL-BY-CELL FLOW TERM FLAG = 1

 OUTPUT FLAGS FOR EACH LAYER:
          HEAD    DRAWDOWN  HEAD  DRAWDOWN
 LAYER  PRINTOUT  PRINTOUT  SAVE    SAVE
 -----------------------------------------
    1       0         0       1       1
 UBUDSV SAVING "         STORAGE" ON UNIT 50 AT TIME STEP 17, STRESS PERIOD    1
 UBUDSV SAVING "   CONSTANT HEAD" ON UNIT 50 AT TIME STEP 17, STRESS PERIOD    1
 UBUDSV SAVING "FLOW RIGHT FACE " ON UNIT 50 AT TIME STEP 17, STRESS PERIOD    1
 UBUDSV SAVING "FLOW FRONT FACE " ON UNIT 50 AT TIME STEP 17, STRESS PERIOD    1
 UBUDSV SAVING "           WELLS" ON UNIT 50 AT TIME STEP 17, STRESS PERIOD    1

 SAVING SATURATED THICKNESS AND FLOW TERMS ON UNIT  333 FOR MT3DMS
 BY THE LINK-MT3DMS PACKAGE V7 AT TIME STEP   17, STRESS PERIOD    1


 HEAD WILL BE SAVED ON UNIT   51 AT END OF TIME STEP   17, STRESS PERIOD    1

 DRAWDOWN WILL BE SAVED ON UNIT   52 AT END OF TIME STEP   17, STRESS PERIOD    1
1
  VOLUMETRIC BUDGET FOR ENTIRE MODEL AT END OF TIME STEP   17, STRESS PERIOD   1
  ------------------------------------------------------------------------------

     CUMULATIVE VOLUMES      L**3       RATES FOR THIS TIME STEP      L**3/T
     ------------------                 ------------------------

           IN:                                      IN:
           ---                                      ---
             STORAGE =          48.3781               STORAGE =           2.0229
       CONSTANT HEAD =           0.0000         CONSTANT HEAD =           0.0000
               WELLS =          30.3450                 WELLS =           1.7850

            TOTAL IN =          78.7231              TOTAL IN =           3.8079

          OUT:                                     OUT:
          ----                                     ----
             STORAGE =          44.0427               STORAGE =           1.7679
       CONSTANT HEAD =           0.0000         CONSTANT HEAD =           0.0000
               WELLS =          34.6800                 WELLS =           2.0400

           TOTAL OUT =          78.7227             TOTAL OUT =           3.8079

            IN - OUT =       3.6621E-04              IN - OUT =       2.5749E-05

 PERCENT DISCREPANCY =           0.00     PERCENT DISCREPANCY =           0.00






         TIME SUMMARY AT END OF TIME STEP   17 IN STRESS PERIOD    1
                    SECONDS     MINUTES      HOURS       DAYS        YEARS
                    -----------------------------------------------------------
   TIME STEP LENGTH 1.00000     1.66667E-02 2.77778E-04 1.15741E-05 3.16881E-08
 STRESS PERIOD TIME  17.000     0.28333     4.72222E-03 1.96759E-04 5.38697E-07
         TOTAL TIME  17.000     0.28333     4.72222E-03 1.96759E-04 5.38697E-07
1
 
 SOLVING FOR HEAD 
     5 ITERATIONS FOR TIME STEP  18 IN STRESS PERIOD    1

 MAXIMUM HEAD CHANGE FOR EACH ITERATION:

    HEAD CHANGE   HEAD CHANGE   HEAD CHANGE   HEAD CHANGE   HEAD CHANGE
  LAYER,ROW,COL LAYER,ROW,COL LAYER,ROW,COL LAYER,ROW,COL LAYER,ROW,COL
 ----------------------------------------------------------------------
     0.3336E-01    0.1639E-01   -0.6044E-02   -0.1037E-02   -0.5705E-04
  (  1, 51,  1) (  1, 48,  2) (  1, 45, 48) (  1, 38, 47) (  1, 51, 51)


 HEAD/DRAWDOWN PRINTOUT FLAG = 1     TOTAL BUDGET PRINTOUT FLAG = 1
 CELL-BY-CELL FLOW TERM FLAG = 1

 OUTPUT FLAGS FOR EACH LAYER:
          HEAD    DRAWDOWN  HEAD  DRAWDOWN
 LAYER  PRINTOUT  PRINTOUT  SAVE    SAVE
 -----------------------------------------
    1       0         0       1       1
 UBUDSV SAVING "         STORAGE" ON UNIT 50 AT TIME STEP 18, STRESS PERIOD    1
 UBUDSV SAVING "   CONSTANT HEAD" ON UNIT 50 AT TIME STEP 18, STRESS PERIOD    1
 UBUDSV SAVING "FLOW RIGHT FACE " ON UNIT 50 AT TIME STEP 18, STRESS PERIOD    1
 UBUDSV SAVING "FLOW FRONT FACE " ON UNIT 50 AT TIME STEP 18, STRESS PERIOD    1
 UBUDSV SAVING "           WELLS" ON UNIT 50 AT TIME STEP 18, STRESS PERIOD    1

 SAVING SATURATED THICKNESS AND FLOW TERMS ON UNIT  333 FOR MT3DMS
 BY THE LINK-MT3DMS PACKAGE V7 AT TIME STEP   18, STRESS PERIOD    1


 HEAD WILL BE SAVED ON UNIT   51 AT END OF TIME STEP   18, STRESS PERIOD    1

 DRAWDOWN WILL BE SAVED ON UNIT   52 AT END OF TIME STEP   18, STRESS PERIOD    1
1
  VOLUMETRIC BUDGET FOR ENTIRE MODEL AT END OF TIME STEP   18, STRESS PERIOD   1
  ------------------------------------------------------------------------------

     CUMULATIVE VOLUMES      L**3       RATES FOR THIS TIME STEP      L**3/T
     ------------------                 ------------------------

           IN:                                      IN:
           ---                                      ---
             STORAGE =          50.3893               STORAGE =           2.0112
       CONSTANT HEAD =           0.0000         CONSTANT HEAD =           0.0000
               WELLS =          32.1300                 WELLS =           1.7850

            TOTAL IN =          82.5193              TOTAL IN =           3.7962

          OUT:                                     OUT:
          ----                                     ----
             STORAGE =          45.7989               STORAGE =           1.7562
       CONSTANT HEAD =           0.0000         CONSTANT HEAD =           0.0000
               WELLS =          36.7200                 WELLS =           2.0400

           TOTAL OUT =          82.5189             TOTAL OUT =           3.7962

            IN - OUT =       3.9673E-04              IN - OUT =       2.5749E-05

 PERCENT DISCREPANCY =           0.00     PERCENT DISCREPANCY =           0.00






         TIME SUMMARY AT END OF TIME STEP   18 IN STRESS PERIOD    1
                    SECONDS     MINUTES      HOURS       DAYS        YEARS
                    -----------------------------------------------------------
   TIME STEP LENGTH 1.00000     1.66667E-02 2.77778E-04 1.15741E-05 3.16881E-08
 STRESS PERIOD TIME  18.000     0.30000     5.00000E-03 2.08333E-04 5.70386E-07
         TOTAL TIME  18.000     0.30000     5.00000E-03 2.08333E-04 5.70386E-07
1
 
 SOLVING FOR HEAD 
     5 ITERATIONS FOR TIME STEP  19 IN STRESS PERIOD    1

 MAXIMUM HEAD CHANGE FOR EACH ITERATION:

    HEAD CHANGE   HEAD CHANGE   HEAD CHANGE   HEAD CHANGE   HEAD CHANGE
  LAYER,ROW,COL LAYER,ROW,COL LAYER,ROW,COL LAYER,ROW,COL LAYER,ROW,COL
 ----------------------------------------------------------------------
     0.3181E-01    0.1581E-01   -0.5926E-02   -0.1015E-02   -0.5608E-04
  (  1, 51,  1) (  1, 48,  2) (  1, 45, 48) (  1, 38, 46) (  1, 51, 51)


 HEAD/DRAWDOWN PRINTOUT FLAG = 1     TOTAL BUDGET PRINTOUT FLAG = 1
 CELL-BY-CELL FLOW TERM FLAG = 1

 OUTPUT FLAGS FOR EACH LAYER:
          HEAD    DRAWDOWN  HEAD  DRAWDOWN
 LAYER  PRINTOUT  PRINTOUT  SAVE    SAVE
 -----------------------------------------
    1       0         0       1       1
 UBUDSV SAVING "         STORAGE" ON UNIT 50 AT TIME STEP 19, STRESS PERIOD    1
 UBUDSV SAVING "   CONSTANT HEAD" ON UNIT 50 AT TIME STEP 19, STRESS PERIOD    1
 UBUDSV SAVING "FLOW RIGHT FACE " ON UNIT 50 AT TIME STEP 19, STRESS PERIOD    1
 UBUDSV SAVING "FLOW FRONT FACE " ON UNIT 50 AT TIME STEP 19, STRESS PERIOD    1
 UBUDSV SAVING "           WELLS" ON UNIT 50 AT TIME STEP 19, STRESS PERIOD    1

 SAVING SATURATED THICKNESS AND FLOW TERMS ON UNIT  333 FOR MT3DMS
 BY THE LINK-MT3DMS PACKAGE V7 AT TIME STEP   19, STRESS PERIOD    1


 HEAD WILL BE SAVED ON UNIT   51 AT END OF TIME STEP   19, STRESS PERIOD    1

 DRAWDOWN WILL BE SAVED ON UNIT   52 AT END OF TIME STEP   19, STRESS PERIOD    1
1
  VOLUMETRIC BUDGET FOR ENTIRE MODEL AT END OF TIME STEP   19, STRESS PERIOD   1
  ------------------------------------------------------------------------------

     CUMULATIVE VOLUMES      L**3       RATES FOR THIS TIME STEP      L**3/T
     ------------------                 ------------------------

           IN:                                      IN:
           ---                                      ---
             STORAGE =          52.3886               STORAGE =           1.9993
       CONSTANT HEAD =           0.0000         CONSTANT HEAD =           0.0000
               WELLS =          33.9150                 WELLS =           1.7850

            TOTAL IN =          86.3036              TOTAL IN =           3.7843

          OUT:                                     OUT:
          ----                                     ----
             STORAGE =          47.5432               STORAGE =           1.7443
       CONSTANT HEAD =           0.0000         CONSTANT HEAD =           0.0000
               WELLS =          38.7600                 WELLS =           2.0400

           TOTAL OUT =          86.3032             TOTAL OUT =           3.7843

            IN - OUT =       4.2725E-04              IN - OUT =       2.6464E-05

 PERCENT DISCREPANCY =           0.00     PERCENT DISCREPANCY =           0.00






         TIME SUMMARY AT END OF TIME STEP   19 IN STRESS PERIOD    1
                    SECONDS     MINUTES      HOURS       DAYS        YEARS
                    -----------------------------------------------------------
   TIME STEP LENGTH 1.00000     1.66667E-02 2.77778E-04 1.15741E-05 3.16881E-08
 STRESS PERIOD TIME  19.000     0.31667     5.27778E-03 2.19907E-04 6.02074E-07
         TOTAL TIME  19.000     0.31667     5.27778E-03 2.19907E-04 6.02074E-07
1
 
 SOLVING FOR HEAD 
     4 ITERATIONS FOR TIME STEP  20 IN STRESS PERIOD    1

 MAXIMUM HEAD CHANGE FOR EACH ITERATION:

    HEAD CHANGE   HEAD CHANGE   HEAD CHANGE   HEAD CHANGE   HEAD CHANGE
  LAYER,ROW,COL LAYER,ROW,COL LAYER,ROW,COL LAYER,ROW,COL LAYER,ROW,COL
 ----------------------------------------------------------------------
     0.3043E-01    0.1527E-01   -0.5816E-02   -0.9959E-03
  (  1, 51,  1) (  1, 48,  2) (  1, 45, 48) (  1, 38, 46)


 HEAD/DRAWDOWN PRINTOUT FLAG = 1     TOTAL BUDGET PRINTOUT FLAG = 1
 CELL-BY-CELL FLOW TERM FLAG = 1

 OUTPUT FLAGS FOR EACH LAYER:
          HEAD    DRAWDOWN  HEAD  DRAWDOWN
 LAYER  PRINTOUT  PRINTOUT  SAVE    SAVE
 -----------------------------------------
    1       0         0       1       1
 UBUDSV SAVING "         STORAGE" ON UNIT 50 AT TIME STEP 20, STRESS PERIOD    1
 UBUDSV SAVING "   CONSTANT HEAD" ON UNIT 50 AT TIME STEP 20, STRESS PERIOD    1
 UBUDSV SAVING "FLOW RIGHT FACE " ON UNIT 50 AT TIME STEP 20, STRESS PERIOD    1
 UBUDSV SAVING "FLOW FRONT FACE " ON UNIT 50 AT TIME STEP 20, STRESS PERIOD    1
 UBUDSV SAVING "           WELLS" ON UNIT 50 AT TIME STEP 20, STRESS PERIOD    1

 SAVING SATURATED THICKNESS AND FLOW TERMS ON UNIT  333 FOR MT3DMS
 BY THE LINK-MT3DMS PACKAGE V7 AT TIME STEP   20, STRESS PERIOD    1


 HEAD WILL BE SAVED ON UNIT   51 AT END OF TIME STEP   20, STRESS PERIOD    1

 DRAWDOWN WILL BE SAVED ON UNIT   52 AT END OF TIME STEP   20, STRESS PERIOD    1
1
[...]
 STRESS PERIOD TIME  44.000     0.73333     1.22222E-02 5.09259E-04 1.39428E-06
         TOTAL TIME  44.000     0.73333     1.22222E-02 5.09259E-04 1.39428E-06
1
 
 SOLVING FOR HEAD 
     4 ITERATIONS FOR TIME STEP  45 IN STRESS PERIOD    1

 MAXIMUM HEAD CHANGE FOR EACH ITERATION:

    HEAD CHANGE   HEAD CHANGE   HEAD CHANGE   HEAD CHANGE   HEAD CHANGE
  LAYER,ROW,COL LAYER,ROW,COL LAYER,ROW,COL LAYER,ROW,COL LAYER,ROW,COL
 ----------------------------------------------------------------------
     0.1594E-01    0.8996E-02   -0.4322E-02   -0.7081E-03
  (  1, 51,  3) (  1, 48,  2) (  1, 45, 47) (  1, 42, 43)


 HEAD/DRAWDOWN PRINTOUT FLAG = 1     TOTAL BUDGET PRINTOUT FLAG = 1
 CELL-BY-CELL FLOW TERM FLAG = 1

 OUTPUT FLAGS FOR EACH LAYER:
          HEAD    DRAWDOWN  HEAD  DRAWDOWN
 LAYER  PRINTOUT  PRINTOUT  SAVE    SAVE
 -----------------------------------------
    1       0         0       1       1
 UBUDSV SAVING "         STORAGE" ON UNIT 50 AT TIME STEP 45, STRESS PERIOD    1
 UBUDSV SAVING "   CONSTANT HEAD" ON UNIT 50 AT TIME STEP 45, STRESS PERIOD    1
 UBUDSV SAVING "FLOW RIGHT FACE " ON UNIT 50 AT TIME STEP 45, STRESS PERIOD    1
 UBUDSV SAVING "FLOW FRONT FACE " ON UNIT 50 AT TIME STEP 45, STRESS PERIOD    1
 UBUDSV SAVING "           WELLS" ON UNIT 50 AT TIME STEP 45, STRESS PERIOD    1

 SAVING SATURATED THICKNESS AND FLOW TERMS ON UNIT  333 FOR MT3DMS
 BY THE LINK-MT3DMS PACKAGE V7 AT TIME STEP   45, STRESS PERIOD    1


 HEAD WILL BE SAVED ON UNIT   51 AT END OF TIME STEP   45, STRESS PERIOD    1

 DRAWDOWN WILL BE SAVED ON UNIT   52 AT END OF TIME STEP   45, STRESS PERIOD    1
1
  VOLUMETRIC BUDGET FOR ENTIRE MODEL AT END OF TIME STEP   45, STRESS PERIOD   1
  ------------------------------------------------------------------------------

     CUMULATIVE VOLUMES      L**3       RATES FOR THIS TIME STEP      L**3/T
     ------------------                 ------------------------

           IN:                                      IN:
           ---                                      ---
             STORAGE =          99.0645               STORAGE =           1.5989
       CONSTANT HEAD =           0.0000         CONSTANT HEAD =           0.0000
               WELLS =          80.3250                 WELLS =           1.7850

            TOTAL IN =         179.3896              TOTAL IN =           3.3839

          OUT:                                     OUT:
          ----                                     ----
             STORAGE =          87.6457               STORAGE =           1.3457
       CONSTANT HEAD =           0.0000         CONSTANT HEAD =           0.0000
               WELLS =          91.8000                 WELLS =           2.0400

           TOTAL OUT =         179.4457             TOTAL OUT =           3.3857

            IN - OUT =      -5.6137E-02              IN - OUT =      -1.7505E-03

 PERCENT DISCREPANCY =          -0.03     PERCENT DISCREPANCY =          -0.05






         TIME SUMMARY AT END OF TIME STEP   45 IN STRESS PERIOD    1
                    SECONDS     MINUTES      HOURS       DAYS        YEARS
                    -----------------------------------------------------------
   TIME STEP LENGTH 1.00000     1.66667E-02 2.77778E-04 1.15741E-05 3.16881E-08
 STRESS PERIOD TIME  45.000     0.75000     1.25000E-02 5.20833E-04 1.42596E-06
         TOTAL TIME  45.000     0.75000     1.25000E-02 5.20833E-04 1.42596E-06
1
 
 SOLVING FOR HEAD 
     4 ITERATIONS FOR TIME STEP  46 IN STRESS PERIOD    1

 MAXIMUM HEAD CHANGE FOR EACH ITERATION:

    HEAD CHANGE   HEAD CHANGE   HEAD CHANGE   HEAD CHANGE   HEAD CHANGE
  LAYER,ROW,COL LAYER,ROW,COL LAYER,ROW,COL LAYER,ROW,COL LAYER,ROW,COL
 ----------------------------------------------------------------------
     0.1567E-01    0.8865E-02   -0.4283E-02   -0.7003E-03
  (  1, 51,  3) (  1, 48,  2) (  1, 46, 47) (  1, 42, 43)


 HEAD/DRAWDOWN PRINTOUT FLAG = 1     TOTAL BUDGET PRINTOUT FLAG = 1
 CELL-BY-CELL FLOW TERM FLAG = 1

 OUTPUT FLAGS FOR EACH LAYER:
          HEAD    DRAWDOWN  HEAD  DRAWDOWN
 LAYER  PRINTOUT  PRINTOUT  SAVE    SAVE
 -----------------------------------------
    1       0         0       1       1
 UBUDSV SAVING "         STORAGE" ON UNIT 50 AT TIME STEP 46, STRESS PERIOD    1
 UBUDSV SAVING "   CONSTANT HEAD" ON UNIT 50 AT TIME STEP 46, STRESS PERIOD    1
 UBUDSV SAVING "FLOW RIGHT FACE " ON UNIT 50 AT TIME STEP 46, STRESS PERIOD    1
 UBUDSV SAVING "FLOW FRONT FACE " ON UNIT 50 AT TIME STEP 46, STRESS PERIOD    1
 UBUDSV SAVING "           WELLS" ON UNIT 50 AT TIME STEP 46, STRESS PERIOD    1

 SAVING SATURATED THICKNESS AND FLOW TERMS ON UNIT  333 FOR MT3DMS
 BY THE LINK-MT3DMS PACKAGE V7 AT TIME STEP   46, STRESS PERIOD    1


 HEAD WILL BE SAVED ON UNIT   51 AT END OF TIME STEP   46, STRESS PERIOD    1

 DRAWDOWN WILL BE SAVED ON UNIT   52 AT END OF TIME STEP   46, STRESS PERIOD    1
1
  VOLUMETRIC BUDGET FOR ENTIRE MODEL AT END OF TIME STEP   46, STRESS PERIOD   1
  ------------------------------------------------------------------------------

     CUMULATIVE VOLUMES      L**3       RATES FOR THIS TIME STEP      L**3/T
     ------------------                 ------------------------

           IN:                                      IN:
           ---                                      ---
             STORAGE =         100.6482               STORAGE =           1.5836
       CONSTANT HEAD =           0.0000         CONSTANT HEAD =           0.0000
               WELLS =          82.1100                 WELLS =           1.7850

            TOTAL IN =         182.7582              TOTAL IN =           3.3686

          OUT:                                     OUT:
          ----                                     ----
             STORAGE =          88.9760               STORAGE =           1.3303
       CONSTANT HEAD =           0.0000         CONSTANT HEAD =           0.0000
               WELLS =          93.8400                 WELLS =           2.0400

           TOTAL OUT =         182.8161             TOTAL OUT =           3.3703

            IN - OUT =      -5.7861E-02              IN - OUT =      -1.7204E-03

 PERCENT DISCREPANCY =          -0.03     PERCENT DISCREPANCY =          -0.05






         TIME SUMMARY AT END OF TIME STEP   46 IN STRESS PERIOD    1
                    SECONDS     MINUTES      HOURS       DAYS        YEARS
                    -----------------------------------------------------------
   TIME STEP LENGTH 1.00000     1.66667E-02 2.77778E-04 1.15741E-05 3.16881E-08
 STRESS PERIOD TIME  46.000     0.76667     1.27778E-02 5.32407E-04 1.45765E-06
         TOTAL TIME  46.000     0.76667     1.27778E-02 5.32407E-04 1.45765E-06
1
 
 SOLVING FOR HEAD 
     4 ITERATIONS FOR TIME STEP  47 IN STRESS PERIOD    1

 MAXIMUM HEAD CHANGE FOR EACH ITERATION:

    HEAD CHANGE   HEAD CHANGE   HEAD CHANGE   HEAD CHANGE   HEAD CHANGE
  LAYER,ROW,COL LAYER,ROW,COL LAYER,ROW,COL LAYER,ROW,COL LAYER,ROW,COL
 ----------------------------------------------------------------------
     0.1542E-01    0.8739E-02   -0.4246E-02   -0.6925E-03
  (  1, 51,  3) (  1, 48,  2) (  1, 46, 47) (  1, 42, 43)


 HEAD/DRAWDOWN PRINTOUT FLAG = 1     TOTAL BUDGET PRINTOUT FLAG = 1
 CELL-BY-CELL FLOW TERM FLAG = 1

 OUTPUT FLAGS FOR EACH LAYER:
          HEAD    DRAWDOWN  HEAD  DRAWDOWN
 LAYER  PRINTOUT  PRINTOUT  SAVE    SAVE
 -----------------------------------------
    1       0         0       1       1
 UBUDSV SAVING "         STORAGE" ON UNIT 50 AT TIME STEP 47, STRESS PERIOD    1
 UBUDSV SAVING "   CONSTANT HEAD" ON UNIT 50 AT TIME STEP 47, STRESS PERIOD    1
 UBUDSV SAVING "FLOW RIGHT FACE " ON UNIT 50 AT TIME STEP 47, STRESS PERIOD    1
 UBUDSV SAVING "FLOW FRONT FACE " ON UNIT 50 AT TIME STEP 47, STRESS PERIOD    1
 UBUDSV SAVING "           WELLS" ON UNIT 50 AT TIME STEP 47, STRESS PERIOD    1

 SAVING SATURATED THICKNESS AND FLOW TERMS ON UNIT  333 FOR MT3DMS
 BY THE LINK-MT3DMS PACKAGE V7 AT TIME STEP   47, STRESS PERIOD    1


 HEAD WILL BE SAVED ON UNIT   51 AT END OF TIME STEP   47, STRESS PERIOD    1

 DRAWDOWN WILL BE SAVED ON UNIT   52 AT END OF TIME STEP   47, STRESS PERIOD    1
1
  VOLUMETRIC BUDGET FOR ENTIRE MODEL AT END OF TIME STEP   47, STRESS PERIOD   1
  ------------------------------------------------------------------------------

     CUMULATIVE VOLUMES      L**3       RATES FOR THIS TIME STEP      L**3/T
     ------------------                 ------------------------

           IN:                                      IN:
           ---                                      ---
             STORAGE =         102.2166               STORAGE =           1.5684
       CONSTANT HEAD =           0.0000         CONSTANT HEAD =           0.0000
               WELLS =          83.8950                 WELLS =           1.7850

            TOTAL IN =         186.1117              TOTAL IN =           3.3534

          OUT:                                     OUT:
          ----                                     ----
             STORAGE =          90.2912               STORAGE =           1.3151
       CONSTANT HEAD =           0.0000         CONSTANT HEAD =           0.0000
               WELLS =          95.8800                 WELLS =           2.0400

           TOTAL OUT =         186.1712             TOTAL OUT =           3.3551

            IN - OUT =      -5.9540E-02              IN - OUT =      -1.6925E-03

 PERCENT DISCREPANCY =          -0.03     PERCENT DISCREPANCY =          -0.05






         TIME SUMMARY AT END OF TIME STEP   47 IN STRESS PERIOD    1
                    SECONDS     MINUTES      HOURS       DAYS        YEARS
                    -----------------------------------------------------------
   TIME STEP LENGTH 1.00000     1.66667E-02 2.77778E-04 1.15741E-05 3.16881E-08
 STRESS PERIOD TIME  47.000     0.78333     1.30556E-02 5.43981E-04 1.48934E-06
         TOTAL TIME  47.000     0.78333     1.30556E-02 5.43981E-04 1.48934E-06
1
 
 SOLVING FOR HEAD 
     4 ITERATIONS FOR TIME STEP  48 IN STRESS PERIOD    1

 MAXIMUM HEAD CHANGE FOR EACH ITERATION:

    HEAD CHANGE   HEAD CHANGE   HEAD CHANGE   HEAD CHANGE   HEAD CHANGE
  LAYER,ROW,COL LAYER,ROW,COL LAYER,ROW,COL LAYER,ROW,COL LAYER,ROW,COL
 ----------------------------------------------------------------------
     0.1517E-01    0.8616E-02   -0.4208E-02   -0.6849E-03
  (  1, 51,  4) (  1, 48,  2) (  1, 46, 47) (  1, 42, 43)


 HEAD/DRAWDOWN PRINTOUT FLAG = 1     TOTAL BUDGET PRINTOUT FLAG = 1
 CELL-BY-CELL FLOW TERM FLAG = 1

 OUTPUT FLAGS FOR EACH LAYER:
          HEAD    DRAWDOWN  HEAD  DRAWDOWN
 LAYER  PRINTOUT  PRINTOUT  SAVE    SAVE
 -----------------------------------------
    1       0         0       1       1
 UBUDSV SAVING "         STORAGE" ON UNIT 50 AT TIME STEP 48, STRESS PERIOD    1
 UBUDSV SAVING "   CONSTANT HEAD" ON UNIT 50 AT TIME STEP 48, STRESS PERIOD    1
 UBUDSV SAVING "FLOW RIGHT FACE " ON UNIT 50 AT TIME STEP 48, STRESS PERIOD    1
 UBUDSV SAVING "FLOW FRONT FACE " ON UNIT 50 AT TIME STEP 48, STRESS PERIOD    1
 UBUDSV SAVING "           WELLS" ON UNIT 50 AT TIME STEP 48, STRESS PERIOD    1

 SAVING SATURATED THICKNESS AND FLOW TERMS ON UNIT  333 FOR MT3DMS
 BY THE LINK-MT3DMS PACKAGE V7 AT TIME STEP   48, STRESS PERIOD    1


 HEAD WILL BE SAVED ON UNIT   51 AT END OF TIME STEP   48, STRESS PERIOD    1

 DRAWDOWN WILL BE SAVED ON UNIT   52 AT END OF TIME STEP   48, STRESS PERIOD    1
1
  VOLUMETRIC BUDGET FOR ENTIRE MODEL AT END OF TIME STEP   48, STRESS PERIOD   1
  ------------------------------------------------------------------------------

     CUMULATIVE VOLUMES      L**3       RATES FOR THIS TIME STEP      L**3/T
     ------------------                 ------------------------

           IN:                                      IN:
           ---                                      ---
             STORAGE =         103.7700               STORAGE =           1.5534
       CONSTANT HEAD =           0.0000         CONSTANT HEAD =           0.0000
               WELLS =          85.6800                 WELLS =           1.7850

            TOTAL IN =         189.4500              TOTAL IN =           3.3384

          OUT:                                     OUT:
          ----                                     ----
             STORAGE =          91.5912               STORAGE =           1.3000
       CONSTANT HEAD =           0.0000         CONSTANT HEAD =           0.0000
               WELLS =          97.9200                 WELLS =           2.0400

           TOTAL OUT =         189.5112             TOTAL OUT =           3.3400

            IN - OUT =      -6.1203E-02              IN - OUT =      -1.6627E-03

 PERCENT DISCREPANCY =          -0.03     PERCENT DISCREPANCY =          -0.05






         TIME SUMMARY AT END OF TIME STEP   48 IN STRESS PERIOD    1
                    SECONDS     MINUTES      HOURS       DAYS        YEARS
                    -----------------------------------------------------------
   TIME STEP LENGTH 1.00000     1.66667E-02 2.77778E-04 1.15741E-05 3.16881E-08
 STRESS PERIOD TIME  48.000     0.80000     1.33333E-02 5.55556E-04 1.52103E-06
         TOTAL TIME  48.000     0.80000     1.33333E-02 5.55556E-04 1.52103E-06
1
 
 SOLVING FOR HEAD 
     4 ITERATIONS FOR TIME STEP  49 IN STRESS PERIOD    1

 MAXIMUM HEAD CHANGE FOR EACH ITERATION:

    HEAD CHANGE   HEAD CHANGE   HEAD CHANGE   HEAD CHANGE   HEAD CHANGE
  LAYER,ROW,COL LAYER,ROW,COL LAYER,ROW,COL LAYER,ROW,COL LAYER,ROW,COL
 ----------------------------------------------------------------------
     0.1494E-01    0.8496E-02   -0.4172E-02   -0.6773E-03
  (  1, 51,  4) (  1, 48,  2) (  1, 46, 47) (  1, 42, 43)


 HEAD/DRAWDOWN PRINTOUT FLAG = 1     TOTAL BUDGET PRINTOUT FLAG = 1
 CELL-BY-CELL FLOW TERM FLAG = 1

 OUTPUT FLAGS FOR EACH LAYER:
          HEAD    DRAWDOWN  HEAD  DRAWDOWN
 LAYER  PRINTOUT  PRINTOUT  SAVE    SAVE
 -----------------------------------------
    1       0         0       1       1
 UBUDSV SAVING "         STORAGE" ON UNIT 50 AT TIME STEP 49, STRESS PERIOD    1
 UBUDSV SAVING "   CONSTANT HEAD" ON UNIT 50 AT TIME STEP 49, STRESS PERIOD    1
 UBUDSV SAVING "FLOW RIGHT FACE " ON UNIT 50 AT TIME STEP 49, STRESS PERIOD    1
 UBUDSV SAVING "FLOW FRONT FACE " ON UNIT 50 AT TIME STEP 49, STRESS PERIOD    1
 UBUDSV SAVING "           WELLS" ON UNIT 50 AT TIME STEP 49, STRESS PERIOD    1

 SAVING SATURATED THICKNESS AND FLOW TERMS ON UNIT  333 FOR MT3DMS
 BY THE LINK-MT3DMS PACKAGE V7 AT TIME STEP   49, STRESS PERIOD    1


 HEAD WILL BE SAVED ON UNIT   51 AT END OF TIME STEP   49, STRESS PERIOD    1

 DRAWDOWN WILL BE SAVED ON UNIT   52 AT END OF TIME STEP   49, STRESS PERIOD    1
1
  VOLUMETRIC BUDGET FOR ENTIRE MODEL AT END OF TIME STEP   49, STRESS PERIOD   1
  ------------------------------------------------------------------------------

     CUMULATIVE VOLUMES      L**3       RATES FOR THIS TIME STEP      L**3/T
     ------------------                 ------------------------

           IN:                                      IN:
           ---                                      ---
             STORAGE =         105.3084               STORAGE =           1.5384
       CONSTANT HEAD =           0.0000         CONSTANT HEAD =           0.0000
               WELLS =          87.4650                 WELLS =           1.7850

            TOTAL IN =         192.7734              TOTAL IN =           3.3234

          OUT:                                     OUT:
          ----                                     ----
             STORAGE =          92.8763               STORAGE =           1.2850
       CONSTANT HEAD =           0.0000         CONSTANT HEAD =           0.0000
               WELLS =          99.9600                 WELLS =           2.0400

           TOTAL OUT =         192.8363             TOTAL OUT =           3.3250

            IN - OUT =      -6.2851E-02              IN - OUT =      -1.6379E-03

 PERCENT DISCREPANCY =          -0.03     PERCENT DISCREPANCY =          -0.05






         TIME SUMMARY AT END OF TIME STEP   49 IN STRESS PERIOD    1
                    SECONDS     MINUTES      HOURS       DAYS        YEARS
                    -----------------------------------------------------------
   TIME STEP LENGTH 1.00000     1.66667E-02 2.77778E-04 1.15741E-05 3.16881E-08
 STRESS PERIOD TIME  49.000     0.81667     1.36111E-02 5.67130E-04 1.55272E-06
         TOTAL TIME  49.000     0.81667     1.36111E-02 5.67130E-04 1.55272E-06
1
 
 SOLVING FOR HEAD 
     4 ITERATIONS FOR TIME STEP  50 IN STRESS PERIOD    1

 MAXIMUM HEAD CHANGE FOR EACH ITERATION:

    HEAD CHANGE   HEAD CHANGE   HEAD CHANGE   HEAD CHANGE   HEAD CHANGE
  LAYER,ROW,COL LAYER,ROW,COL LAYER,ROW,COL LAYER,ROW,COL LAYER,ROW,COL
 ----------------------------------------------------------------------
     0.1471E-01    0.8381E-02   -0.4136E-02   -0.6698E-03
  (  1, 51,  4) (  1, 48,  2) (  1, 46, 47) (  1, 42, 43)


 HEAD/DRAWDOWN PRINTOUT FLAG = 1     TOTAL BUDGET PRINTOUT FLAG = 1
 CELL-BY-CELL FLOW TERM FLAG = 1

 OUTPUT FLAGS FOR EACH LAYER:
          HEAD    DRAWDOWN  HEAD  DRAWDOWN
 LAYER  PRINTOUT  PRINTOUT  SAVE    SAVE
 -----------------------------------------
    1       0         0       1       1
 UBUDSV SAVING "         STORAGE" ON UNIT 50 AT TIME STEP 50, STRESS PERIOD    1
 UBUDSV SAVING "   CONSTANT HEAD" ON UNIT 50 AT TIME STEP 50, STRESS PERIOD    1
 UBUDSV SAVING "FLOW RIGHT FACE " ON UNIT 50 AT TIME STEP 50, STRESS PERIOD    1
 UBUDSV SAVING "FLOW FRONT FACE " ON UNIT 50 AT TIME STEP 50, STRESS PERIOD    1
 UBUDSV SAVING "           WELLS" ON UNIT 50 AT TIME STEP 50, STRESS PERIOD    1

 SAVING SATURATED THICKNESS AND FLOW TERMS ON UNIT  333 FOR MT3DMS
 BY THE LINK-MT3DMS PACKAGE V7 AT TIME STEP   50, STRESS PERIOD    1


 HEAD WILL BE SAVED ON UNIT   51 AT END OF TIME STEP   50, STRESS PERIOD    1

 DRAWDOWN WILL BE SAVED ON UNIT   52 AT END OF TIME STEP   50, STRESS PERIOD    1
1
  VOLUMETRIC BUDGET FOR ENTIRE MODEL AT END OF TIME STEP   50, STRESS PERIOD   1
  ------------------------------------------------------------------------------

     CUMULATIVE VOLUMES      L**3       RATES FOR THIS TIME STEP      L**3/T
     ------------------                 ------------------------

           IN:                                      IN:
           ---                                      ---
             STORAGE =         106.8320               STORAGE =           1.5236
       CONSTANT HEAD =           0.0000         CONSTANT HEAD =           0.0000
               WELLS =          89.2501                 WELLS =           1.7850

            TOTAL IN =         196.0820              TOTAL IN =           3.3086

          OUT:                                     OUT:
          ----                                     ----
             STORAGE =          94.1464               STORAGE =           1.2702
       CONSTANT HEAD =           0.0000         CONSTANT HEAD =           0.0000
               WELLS =         102.0000                 WELLS =           2.0400

           TOTAL OUT =         196.1465             TOTAL OUT =           3.3102

            IN - OUT =      -6.4453E-02              IN - OUT =      -1.6115E-03

 PERCENT DISCREPANCY =          -0.03     PERCENT DISCREPANCY =          -0.05






         TIME SUMMARY AT END OF TIME STEP   50 IN STRESS PERIOD    1
                    SECONDS     MINUTES      HOURS       DAYS        YEARS
                    -----------------------------------------------------------
   TIME STEP LENGTH 1.00000     1.66667E-02 2.77778E-04 1.15741E-05 3.16881E-08
 STRESS PERIOD TIME  50.000     0.83333     1.38889E-02 5.78704E-04 1.58440E-06
         TOTAL TIME  50.000     0.83333     1.38889E-02 5.78704E-04 1.58440E-06
1

 Run end date and time (yyyy/mm/dd hh:mm:ss): 2024/12/30 19:31:25
 Elapsed run time:  0.128 Seconds

